@<TRIPOS>MOLECULE
molecule
   49    52     1     0     0
SMALL
bcc


@<TRIPOS>ATOM
      1 N1           0.0000     0.0000     0.0000 nh         1 NXZ      -0.607300
      2 C2           0.6550     0.6020     2.2250 c3         1 NXZ       0.067500
      3 C3           1.8740     0.0000     1.4940 c3         1 NXZ       0.094700
      4 C4           1.4860     0.0000     0.0000 c3         1 NXZ       0.149800
      5 C5          -0.3660     0.9160     1.1110 c3         1 NXZ       0.153800
      6 C6          -3.7700     1.1260    -2.9390 cp         1 NXZ      -0.179500
      7 C7          -4.2070     1.5930    -4.1770 ca         1 NXZ      -0.088000
      8 C8          -5.5610     1.6870    -4.4370 ca         1 NXZ      -0.134000
      9 C9          -6.4800     1.3170    -3.4730 ca         1 NXZ      -0.096000
     10 C10         -6.0510     0.8510    -2.2420 ca         1 NXZ      -0.134000
     11 C11         -4.7010     0.7530    -1.9710 ca         1 NXZ      -0.088000
     12 C12         -2.3180     1.0170    -2.6560 cp         1 NXZ       0.557800
     13 C13         -1.8710     0.5450    -1.4240 ca         1 NXZ      -0.383600
     14 C14         -0.4970     0.4630    -1.2090 ca         1 NXZ       0.608200
     15 N15          0.3330     0.8350    -2.1800 nb         1 NXZ      -0.805000
     16 C16         -0.1300     1.2770    -3.3330 ca         1 NXZ       0.716900
     17 N17         -1.4200     1.3650    -3.5780 nb         1 NXZ      -0.739000
     18 N18          1.0400     1.8340     2.9260 nz         1 NXZ      -0.809600
     19 N19          2.1190    -1.3680     1.9570 n          1 NXZ      -0.492800
     20 C20          3.4070    -1.6620     2.5710 c3         1 NXZ       0.103000
     21 C21          3.3270    -2.9460     3.3970 c3         1 NXZ      -0.096400
     22 C22          2.7090    -4.0500     2.5300 c3         1 NXZ      -0.089400
     23 C23          1.2460    -3.6910     2.2590 c3         1 NXZ      -0.142400
     24 C24          1.1460    -2.2660     1.7930 c          1 NXZ       0.683500
     25 O25          0.1300    -1.9160     1.2320 o          1 NXZ      -0.606500
     26 H2           0.2420    -0.1190     2.9190 hx         1 NXZ       0.142700
     27 H3           2.7490     0.6190     1.6530 h1         1 NXZ       0.064700
     28 H4           1.8620     0.8920    -0.4870 h1         1 NXZ       0.093200
     29 H4A          1.8620    -0.8920    -0.4870 h1         1 NXZ       0.093200
     30 H5          -0.2720     1.9480     0.7940 h1         1 NXZ       0.068700
     31 H5A         -1.3720     0.7090     1.4540 h1         1 NXZ       0.068700
     32 H7          -3.4880     1.8840    -4.9330 ha         1 NXZ       0.141500
     33 H8          -5.9030     2.0500    -5.3990 ha         1 NXZ       0.141000
     34 H9          -7.5400     1.3920    -3.6810 ha         1 NXZ       0.141000
     35 H10         -6.7760     0.5620    -1.4910 ha         1 NXZ       0.141000
     36 H11         -4.3660     0.3890    -1.0080 ha         1 NXZ       0.141500
     37 H13         -2.5550     0.0280    -0.7620 ha         1 NXZ       0.165000
     38 H16          0.5730     1.5710    -4.1040 h5         1 NXZ       0.070100
     39 HN18         1.6720     1.6110     3.6700 hn         1 NXZ       0.454133
     40 HN1A         0.2230     2.2730     3.3030 hn         1 NXZ       0.454133
     41 H20          3.6890    -0.8400     3.2170 h1         1 NXZ       0.044200
     42 H20A         4.1520    -1.7840     1.7940 h1         1 NXZ       0.044200
     43 H21          4.3220    -3.2420     3.7050 hc         1 NXZ       0.062700
     44 H21A         2.7050    -2.7790     4.2680 hc         1 NXZ       0.062700
     45 H22          3.2470    -4.1180     1.5920 hc         1 NXZ       0.066200
     46 H22A         2.7600    -4.9960     3.0560 hc         1 NXZ       0.066200
     47 H23          0.8530    -4.3470     1.4910 hc         1 NXZ       0.088700
     48 H23A         0.6730    -3.8110     3.1700 hc         1 NXZ       0.088700
     49 H183         1.5110     2.4470     2.2900 hn         1 NXZ       0.454133
@<TRIPOS>BOND
     1     4     1 1
     2     5     1 1
     3     1    14 1
     4    18     2 1
     5     2     3 1
     6     2     5 1
     7     2    26 1
     8    19     3 1
     9     3     4 1
    10     3    27 1
    11     4    28 1
    12     4    29 1
    13     5    30 1
    14     5    31 1
    15    12     6 1
    16    11     6 ar
    17     6     7 ar
    18     7     8 ar
    19     7    32 1
    20     9     8 ar
    21     8    33 1
    22    10     9 ar
    23     9    34 1
    24    11    10 ar
    25    10    35 1
    26    11    36 1
    27    13    12 ar
    28    12    17 ar
    29    14    13 ar
    30    13    37 1
    31    14    15 ar
    32    15    16 ar
    33    16    17 ar
    34    16    38 1
    35    18    39 1
    36    18    40 1
    37    20    19 1
    38    24    19 1
    39    21    20 1
    40    20    41 1
    41    20    42 1
    42    22    21 1
    43    21    43 1
    44    21    44 1
    45    22    23 1
    46    22    45 1
    47    22    46 1
    48    23    24 1
    49    23    47 1
    50    23    48 1
    51    24    25 2
    52    49    18 1
@<TRIPOS>SUBSTRUCTURE
     1 NXZ         1 TEMP              0 ****  ****    0 ROOT
