@<TRIPOS>MOLECULE
NY2
   24    26     1     0     0
SMALL
bcc


@<TRIPOS>ATOM
      1 O01          0.0000     0.0000     0.0000 o          1 NY2      -0.455500
      2 N02          1.2180     0.0000     0.0000 no         1 NY2       1.096200
      3 O03          1.8280     0.0000     1.0550 o          1 NY2      -0.455500
      4 C04          1.9580    -0.0060    -1.2820 cc         1 NY2      -0.662500
      5 C05          1.4120    -0.0840    -2.5160 cd         1 NY2      -0.154300
      6 N06          2.4170    -0.0600    -3.4180 na         1 NY2       0.488400
      7 N07          3.6280     0.0350    -2.7200 nd         1 NY2      -0.649800
      8 C08          3.3560     0.0750    -1.4330 cc         1 NY2       0.526800
      9 C09          4.3480     0.1800    -0.3340 cc         1 NY2      -0.320800
     10 C10          4.4920    -0.8620     0.6030 cc         1 NY2       0.502200
     11 N11          5.3730    -0.7600     1.5710 nd         1 NY2      -0.544000
     12 C12          6.1470     0.3260     1.6920 cd         1 NY2       0.297500
     13 C13          7.1350     0.6640     2.6140 cc         1 NY2      -0.259500
     14 Br           7.7090    -0.3940     4.0720 br         1 NY2      -0.005700
     15 C15          7.6250     1.9240     2.2690 c          1 NY2       0.647700
     16 O16          8.5020     2.5350     2.8600 o          1 NY2      -0.656500
     17 N17          6.9670     2.3500     1.1750 ns         1 NY2      -0.207200
     18 N18          6.0420     1.3660     0.8020 na         1 NY2       0.251500
     19 C19          5.1480     1.2990    -0.2180 cd         1 NY2      -0.121300
     20 H1           0.3550    -0.1520    -2.7410 h4         1 NY2       0.169000
     21 H2           2.3140    -0.1050    -4.4130 hn         1 NY2       0.161700
     22 H3           3.9020    -1.7650     0.5020 h4         1 NY2      -0.006900
     23 H5           7.1130     3.2230     0.7070 hn         1 NY2       0.219500
     24 H6           5.1950     2.0170    -1.0280 h4         1 NY2       0.141000
@<TRIPOS>BOND
     1     1     2 1   
     2     2     3 1   
     3     2     4 1   
     4     4     5 2   
     5     4     8 1   
     6     5     6 1   
     7     5    20 1   
     8     6     7 1   
     9     6    21 1   
    10     7     8 2   
    11     8     9 1   
    12     9    10 1   
    13     9    19 2   
    14    10    11 2   
    15    10    22 1   
    16    11    12 1   
    17    12    13 2   
    18    12    18 1   
    19    13    14 1   
    20    13    15 1   
    21    15    16 2   
    22    15    17 1   
    23    17    18 1   
    24    17    23 1   
    25    18    19 1   
    26    19    24 1   
@<TRIPOS>SUBSTRUCTURE
     1 NY2         1 TEMP              0 ****  ****    0 ROOT
