@<TRIPOS>MOLECULE
NYH
   18    18     1     0     0
SMALL
bcc


@<TRIPOS>ATOM
      1 C1A          0.0000     0.0000     0.0000 c2         1 NYH      -0.464300
      2 N1A         -0.6940    -0.0100    -1.3070 no         1 NYH       1.014100
      3 O1N         -0.0480    -0.0170    -2.3400 o          1 NYH      -0.449500
      4 O2N         -1.9110    -0.0090    -1.3490 o          1 NYH      -0.449500
      5 C2A          1.2950     0.0000     0.0000 c2         1 NYH      -0.009200
      6 C3A          2.1360     0.0000     1.2430 c3         1 NYH       0.006800
      7 C4A          1.2940     0.4220     2.4490 c3         1 NYH      -0.029400
      8 C5A          0.0020    -0.4040     2.4520 c3         1 NYH      -0.025400
      9 C6A         -0.8390     0.0150     1.2440 c3         1 NYH       0.055800
     10 H2A          1.8020    -0.0000    -0.9570 ha         1 NYH       0.127000
     11 H3A          2.9570     0.6960     1.1190 hc         1 NYH       0.033700
     12 H3AA         2.5250    -0.9970     1.4110 hc         1 NYH       0.033700
     13 H4A          1.8480     0.2350     3.3610 hc         1 NYH       0.021700
     14 H4AA         1.0520     1.4750     2.3720 hc         1 NYH       0.021700
     15 H5A          0.2430    -1.4570     2.3800 hc         1 NYH       0.022200
     16 H5AA        -0.5510    -0.2120     3.3640 hc         1 NYH       0.022200
     17 H6A         -1.6650    -0.6760     1.1260 hc         1 NYH       0.034700
     18 H6AA        -1.2220     1.0160     1.4040 hc         1 NYH       0.034700
@<TRIPOS>BOND
     1     1     2 1   
     2     1     5 2   
     3     1     9 1   
     4     2     3 1   
     5     2     4 1   
     6     5     6 1   
     7     5    10 1   
     8     6     7 1   
     9     6    11 1   
    10     6    12 1   
    11     7     8 1   
    12     7    13 1   
    13     7    14 1   
    14     8     9 1   
    15     8    15 1   
    16     8    16 1   
    17     9    17 1   
    18     9    18 1   
@<TRIPOS>SUBSTRUCTURE
     1 NYH         1 TEMP              0 ****  ****    0 ROOT
