@<TRIPOS>MOLECULE
molecule
   34    36     1     0     0
SMALL
bcc


@<TRIPOS>ATOM
      1 CAI          0.0000     0.0000     0.0000 c3         1 NYJ      -0.047900
      2 CAH          1.5080     0.0000     0.0000 cc         1 NYJ      -0.137400
      3 CAG          2.3390     0.0000     1.1960 ca         1 NYJ       0.025200
      4 CAB          1.8890    -0.0010     2.5160 ca         1 NYJ      -0.090300
      5 CAA          0.4390    -0.0030     2.9290 c3         1 NYJ      -0.045800
      6 CAC          2.7880    -0.0020     3.5580 ca         1 NYJ      -0.102000
      7 CAD          4.1550     0.0000     3.3470 ca         1 NYJ      -0.149000
      8 CAE          4.6400     0.0020     2.0610 ca         1 NYJ      -0.063000
      9 CAF          3.7500     0.0010     0.9860 ca         1 NYJ      -0.161600
     10 CAL          4.2860     0.0020    -0.3810 c          1 NYJ       0.703100
     11 OAM          5.4920     0.0040    -0.5640 o          1 NYJ      -0.645500
     12 NAK          3.4430    -0.0000    -1.4270 ns         1 NYJ      -0.423100
     13 CAJ          2.0890    -0.0000    -1.2370 cd         1 NYJ       0.082400
     14 CAN          1.1990    -0.0020    -2.4190 ca         1 NYJ      -0.076800
     15 CAO          0.2410     1.0010    -2.5760 ca         1 NYJ      -0.107000
     16 CAP         -0.5850     0.9940    -3.6810 ca         1 NYJ      -0.131000
     17 CAQ         -0.4650    -0.0040    -4.6310 ca         1 NYJ      -0.116000
     18 CAR          0.4820    -1.0010    -4.4820 ca         1 NYJ      -0.131000
     19 CAS          1.3190    -1.0020    -3.3850 ca         1 NYJ      -0.107000
     20 HAI1        -0.3610     1.0010     0.2050 hc         1 NYJ       0.047033
     21 HAI2        -0.3610    -0.6780     0.7640 hc         1 NYJ       0.047033
     22 HAI3        -0.3610    -0.3230    -0.9690 hc         1 NYJ       0.047033
     23 HAA1         0.3710     0.0710     4.0080 hc         1 NYJ       0.044033
     24 HAA2        -0.0290    -0.9230     2.6010 hc         1 NYJ       0.044033
     25 HAA3        -0.0670     0.8410     2.4770 hc         1 NYJ       0.044033
     26 HAC          2.4140    -0.0030     4.5750 ha         1 NYJ       0.130000
     27 HAD          4.8370    -0.0000     4.1880 ha         1 NYJ       0.136000
     28 HAE          5.7090     0.0030     1.8830 ha         1 NYJ       0.157000
     29 HAK          3.8110    -0.0000    -2.3570 hn         1 NYJ       0.339500
     30 HAO          0.1460     1.7830    -1.8330 ha         1 NYJ       0.140500
     31 HAS          2.0610    -1.7830    -3.2680 ha         1 NYJ       0.140500
     32 HAP         -1.3290     1.7710    -3.8040 ha         1 NYJ       0.135500
     33 HAQ         -1.1180    -0.0060    -5.4960 ha         1 NYJ       0.133000
     34 HAR          0.5720    -1.7780    -5.2310 ha         1 NYJ       0.135500
@<TRIPOS>BOND
     1     1     2 1
     2     2     3 1
     3     2    13 2
     4     3     4 ar
     5     3     9 ar
     6     4     5 1
     7     4     6 ar
     8     6     7 ar
     9     7     8 ar
    10     8     9 ar
    11     9    10 1
    12    10    11 2
    13    10    12 1
    14    12    13 1
    15    13    14 1
    16    14    15 ar
    17    14    19 ar
    18    15    16 ar
    19    16    17 ar
    20    17    18 ar
    21    18    19 ar
    22     1    20 1
    23     1    21 1
    24     1    22 1
    25     5    23 1
    26     5    24 1
    27     5    25 1
    28     6    26 1
    29     7    27 1
    30     8    28 1
    31    12    29 1
    32    15    30 1
    33    19    31 1
    34    16    32 1
    35    17    33 1
    36    18    34 1
@<TRIPOS>SUBSTRUCTURE
     1 NYJ         1 TEMP              0 ****  ****    0 ROOT
