@<TRIPOS>MOLECULE
NYJ
   34    36     1     0     0
SMALL
bcc


@<TRIPOS>ATOM
      1 CAI          0.0000     0.0000     0.0000 c3         1 NYJ       0.028100
      2 CAH          1.5080     0.0000     0.0000 cc         1 NYJ      -0.125400
      3 CAG          2.3390     0.0000     1.1960 ca         1 NYJ       0.033200
      4 CAB          1.8890    -0.0010     2.5160 ca         1 NYJ      -0.095300
      5 CAA          0.4390    -0.0030     2.9290 c3         1 NYJ       0.054200
      6 CAC          2.7880    -0.0020     3.5580 ca         1 NYJ      -0.080000
      7 CAD          4.1550     0.0000     3.3470 ca         1 NYJ      -0.123000
      8 CAE          4.6400     0.0020     2.0610 ca         1 NYJ      -0.032000
      9 CAF          3.7500     0.0010     0.9860 ca         1 NYJ      -0.170600
     10 CAL          4.2860     0.0020    -0.3810 c          1 NYJ       0.602100
     11 OAM          5.4920     0.0040    -0.5640 o          1 NYJ      -0.691500
     12 NAK          3.4430    -0.0000    -1.4270 ns         1 NYJ       0.056900
     13 CAJ          2.0890    -0.0000    -1.2370 cd         1 NYJ      -0.087600
     14 CAN          1.1990    -0.0020    -2.4190 ca         1 NYJ      -0.065800
     15 CAO          0.2410     1.0010    -2.5760 ca         1 NYJ      -0.085500
     16 CAP         -0.5850     0.9940    -3.6810 ca         1 NYJ      -0.100500
     17 CAQ         -0.4650    -0.0040    -4.6310 ca         1 NYJ      -0.090000
     18 CAR          0.4820    -1.0010    -4.4820 ca         1 NYJ      -0.100500
     19 CAS          1.3190    -1.0020    -3.3850 ca         1 NYJ      -0.085500
     20 HAI1        -0.3610     1.0010     0.2050 hc         1 NYJ       0.021367
     21 HAI2        -0.3610    -0.6780     0.7640 hc         1 NYJ       0.021367
     22 HAI3        -0.3610    -0.3230    -0.9690 hc         1 NYJ       0.021367
     23 HAA1         0.3710     0.0710     4.0080 hc         1 NYJ       0.012033
     24 HAA2        -0.0290    -0.9230     2.6010 hc         1 NYJ       0.012033
     25 HAA3        -0.0670     0.8410     2.4770 hc         1 NYJ       0.012033
     26 HAC          2.4140    -0.0030     4.5750 ha         1 NYJ       0.104000
     27 HAD          4.8370    -0.0000     4.1880 ha         1 NYJ       0.108000
     28 HAE          5.7090     0.0030     1.8830 ha         1 NYJ       0.128000
     29 HAK          3.8110    -0.0000    -2.3570 hn         1 NYJ       0.174500
     30 HAO          0.1460     1.7830    -1.8330 ha         1 NYJ       0.113500
     31 HAS          2.0610    -1.7830    -3.2680 ha         1 NYJ       0.113500
     32 HAP         -1.3290     1.7710    -3.8040 ha         1 NYJ       0.107000
     33 HAQ         -1.1180    -0.0060    -5.4960 ha         1 NYJ       0.104000
     34 HAR          0.5720    -1.7780    -5.2310 ha         1 NYJ       0.107000
@<TRIPOS>BOND
     1     1     2 1   
     2     1    20 1   
     3     1    21 1   
     4     1    22 1   
     5     2     3 1   
     6     2    13 2   
     7     3     4 ar  
     8     3     9 ar  
     9     4     5 1   
    10     4     6 ar  
    11     5    23 1   
    12     5    24 1   
    13     5    25 1   
    14     6     7 ar  
    15     6    26 1   
    16     7     8 ar  
    17     7    27 1   
    18     8     9 ar  
    19     8    28 1   
    20     9    10 1   
    21    10    11 2   
    22    10    12 1   
    23    12    13 1   
    24    12    29 1   
    25    13    14 1   
    26    14    15 ar  
    27    14    19 ar  
    28    15    16 ar  
    29    15    30 1   
    30    16    17 ar  
    31    16    32 1   
    32    17    18 ar  
    33    17    33 1   
    34    18    19 ar  
    35    18    34 1   
    36    19    31 1   
@<TRIPOS>SUBSTRUCTURE
     1 NYJ         1 TEMP              0 ****  ****    0 ROOT
