@<TRIPOS>MOLECULE
NYK
   21    22     1     0     0
SMALL
bcc


@<TRIPOS>ATOM
      1 C01          0.0000     0.0000     0.0000 c3         1 NYK       0.143700
      2 C02         -0.4910    -1.2720     0.5560 c1         1 NYK       0.177700
      3 N03         -0.8820    -2.2430     0.9970 n1         1 NYK      -0.361800
      4 C04          1.5300     0.0000     0.0000 c3         1 NYK      -0.077400
      5 C05          2.0610     0.0000     1.4170 c          1 NYK       0.607500
      6 N06          2.7760     1.1260     1.5720 ns         1 NYK      -0.007100
      7 C07          2.7960     1.9030     0.4130 ca         1 NYK      -0.098400
      8 C08          3.4080     3.1250     0.1450 ca         1 NYK      -0.117000
      9 C09          3.2820     3.7060    -1.1000 ca         1 NYK      -0.063000
     10 C10          2.5470     3.0820    -2.0910 ca         1 NYK      -0.123000
     11 C11          1.9340     1.8670    -1.8320 ca         1 NYK      -0.039000
     12 C12          2.0600     1.2860    -0.5910 ca         1 NYK      -0.160300
     13 O13          1.8750    -0.8560     2.2560 o          1 NYK      -0.627500
     14 H01         -0.3610     0.8220     0.6060 hc         1 NYK       0.032200
     15 H01A        -0.3610     0.1140    -1.0150 hc         1 NYK       0.032200
     16 H04          1.9150    -0.8520    -0.5470 hc         1 NYK       0.069700
     17 HN06         3.2540     1.4100     2.4040 hn         1 NYK       0.178500
     18 H08          3.9860     3.6210     0.9150 ha         1 NYK       0.108000
     19 H09          3.7600     4.6570    -1.3050 ha         1 NYK       0.106000
     20 H10          2.4520     3.5430    -3.0660 ha         1 NYK       0.110000
     21 H11          1.3580     1.3760    -2.6060 ha         1 NYK       0.105000
@<TRIPOS>BOND
     1     1     2 1   
     2     1     4 1   
     3     1    14 1   
     4     1    15 1   
     5     2     3 3   
     6     4     5 1   
     7     4    12 1   
     8     4    16 1   
     9     5     6 1   
    10     5    13 2   
    11     6     7 1   
    12     6    17 1   
    13     7     8 ar  
    14     7    12 ar  
    15     8     9 ar  
    16     8    18 1   
    17     9    10 ar  
    18     9    19 1   
    19    10    11 ar  
    20    10    20 1   
    21    11    12 ar  
    22    11    21 1   
@<TRIPOS>SUBSTRUCTURE
     1 NYK         1 TEMP              0 ****  ****    0 ROOT
