@<TRIPOS>MOLECULE
molecule
   21    22     1     0     0
SMALL
bcc


@<TRIPOS>ATOM
      1 C01          0.0000     0.0000     0.0000 c3         1 NYK       0.011700
      2 C02         -0.4910    -1.2720     0.5560 c1         1 NYK       0.202700
      3 N03         -0.8820    -2.2430     0.9970 n1         1 NYK      -0.348800
      4 C04          1.5300     0.0000     0.0000 c3         1 NYK      -0.106400
      5 C05          2.0610     0.0000     1.4170 c          1 NYK       0.711500
      6 N06          2.7760     1.1260     1.5720 ns         1 NYK      -0.460100
      7 C07          2.7960     1.9030     0.4130 ca         1 NYK       0.054600
      8 C08          3.4080     3.1250     0.1450 ca         1 NYK      -0.156000
      9 C09          3.2820     3.7060    -1.1000 ca         1 NYK      -0.090000
     10 C10          2.5470     3.0820    -2.0910 ca         1 NYK      -0.153000
     11 C11          1.9340     1.8670    -1.8320 ca         1 NYK      -0.074000
     12 C12          2.0600     1.2860    -0.5910 ca         1 NYK      -0.153300
     13 O13          1.8750    -0.8560     2.2560 o          1 NYK      -0.586500
     14 H01         -0.3610     0.8220     0.6060 hc         1 NYK       0.078200
     15 H01A        -0.3610     0.1140    -1.0150 hc         1 NYK       0.078200
     16 H04          1.9150    -0.8520    -0.5470 hc         1 NYK       0.103700
     17 HN06         3.2540     1.4100     2.4040 hn         1 NYK       0.340500
     18 H08          3.9860     3.6210     0.9150 ha         1 NYK       0.135000
     19 H09          3.7600     4.6570    -1.3050 ha         1 NYK       0.138000
     20 H10          2.4520     3.5430    -3.0660 ha         1 NYK       0.138000
     21 H11          1.3580     1.3760    -2.6060 ha         1 NYK       0.135000
@<TRIPOS>BOND
     1     1     2 1
     2     1     4 1
     3     2     3 3
     4     4     5 1
     5     4    12 1
     6     5     6 1
     7     5    13 2
     8     6     7 1
     9     7     8 ar
    10     7    12 ar
    11     8     9 ar
    12     9    10 ar
    13    10    11 ar
    14    11    12 ar
    15     1    14 1
    16     1    15 1
    17     4    16 1
    18     6    17 1
    19     8    18 1
    20     9    19 1
    21    10    20 1
    22    11    21 1
@<TRIPOS>SUBSTRUCTURE
     1 NYK         1 TEMP              0 ****  ****    0 ROOT
