@<TRIPOS>MOLECULE
NYL
   21    21     1     0     0
SMALL
bcc


@<TRIPOS>ATOM
      1 C1           0.0000     0.0000     0.0000 ca         1 NYL       0.068600
      2 C2           1.3890     0.0000     0.0000 ca         1 NYL      -0.192500
      3 C3          -0.6900     0.0060     1.2050 ca         1 NYL      -0.192500
      4 N4          -0.6990    -0.0000    -1.2080 nu         1 NYL      -0.429600
      5 C5           2.0790     0.0000     1.1970 ca         1 NYL      -0.049000
      6 C6           0.0050     0.0010     2.3970 ca         1 NYL      -0.049000
      7 C7           1.3880     0.0010     2.3930 ca         1 NYL      -0.167000
      8 C13         -2.1630     0.0010    -1.2060 c3         1 NYL       0.210000
      9 C15         -2.6680     0.0020    -2.6270 c2         1 NYL      -0.180200
     10 C16         -3.4220    -0.9790    -3.0550 c2         1 NYL      -0.136000
     11 HC2          1.9310    -0.0030    -0.9380 ha         1 NYL       0.109500
     12 HC3         -1.7730     0.0060     1.2090 ha         1 NYL       0.109500
     13 HN4         -0.2000     0.0040    -2.0750 hn         1 NYL       0.293800
     14 HC5          3.1620    -0.0000     1.1980 ha         1 NYL       0.096000
     15 HC6         -0.5340     0.0040     3.3370 ha         1 NYL       0.096000
     16 HC7          1.9300    -0.0010     3.3310 ha         1 NYL       0.102000
     17 H131        -2.5240    -0.8830    -0.6950 h1         1 NYL       0.016200
     18 H132        -2.5220     0.8860    -0.6950 h1         1 NYL       0.016200
     19 H15         -2.4070     0.8150    -3.2930 ha         1 NYL       0.106000
     20 H161        -3.6830    -1.7920    -2.3880 ha         1 NYL       0.086000
     21 H162        -3.7850    -0.9780    -4.0750 ha         1 NYL       0.086000
@<TRIPOS>BOND
     1     1     2 ar  
     2     1     3 ar  
     3     1     4 1   
     4     2     5 ar  
     5     2    11 1   
     6     3     6 ar  
     7     3    12 1   
     8     4     8 1   
     9     4    13 1   
    10     5     7 ar  
    11     5    14 1   
    12     6     7 ar  
    13     6    15 1   
    14     7    16 1   
    15     8     9 1   
    16     8    17 1   
    17     8    18 1   
    18     9    10 2   
    19     9    19 1   
    20    10    20 1   
    21    10    21 1   
@<TRIPOS>SUBSTRUCTURE
     1 NYL         1 TEMP              0 ****  ****    0 ROOT
