@<TRIPOS>MOLECULE
molecule
   30    30     1     0     0
SMALL
bcc


@<TRIPOS>ATOM
      1 C8N          0.0000     0.0000     0.0000 c3         1 NYP      -0.082400
      2 N8           1.4650     0.0000     0.0000 nh         1 NYP      -0.056100
      3 C9           2.1130     0.0000     1.1220 ce         1 NYP       0.139500
      4 C10          1.3830    -0.1190     2.3910 ce         1 NYP      -0.438600
      5 C11          2.0360    -0.0180     3.5460 c2         1 NYP       0.103000
      6 C7           2.1970     0.0010    -1.2680 c3         1 NYP       0.010300
      7 C1           1.9250    -1.3070    -2.0150 c3         1 NYP      -0.092700
      8 C2           2.5970    -1.2630    -3.3930 c3         1 NYP      -0.071400
      9 C3           2.1610    -2.5000    -4.1840 c3         1 NYP      -0.046200
     10 C4           2.3400    -3.7350    -3.3500 c2         1 NYP      -0.151200
     11 C5           2.4870    -3.7270    -2.0630 c2         1 NYP      -0.185200
     12 C6           2.5060    -2.4810    -1.2250 c3         1 NYP      -0.041200
     13 H8N1        -0.3610     0.8140     0.6180 h1         1 NYP       0.090367
     14 H8N2        -0.3610     0.1280    -1.0130 h1         1 NYP       0.090367
     15 H8N3        -0.3610    -0.9420     0.3960 h1         1 NYP       0.090367
     16 H9           1.6500     0.8550     1.6000 h4         1 NYP       0.256800
     17 H10          0.3130    -0.2900     2.3870 ha         1 NYP       0.158000
     18 H11          1.4980    -0.1060     4.4820 ha         1 NYP       0.170500
     19 H111         3.1060     0.1530     3.5500 ha         1 NYP       0.170500
     20 HC71         1.8700     0.8370    -1.8740 h1         1 NYP       0.100200
     21 HC72         3.2590     0.0900    -1.0730 h1         1 NYP       0.100200
     22 H1           0.8570    -1.4460    -2.1370 hc         1 NYP       0.064700
     23 H2           2.2890    -0.3680    -3.9200 hc         1 NYP       0.056200
     24 H21          3.6730    -1.2700    -3.2730 hc         1 NYP       0.056200
     25 H3           1.1170    -2.4010    -4.4560 hc         1 NYP       0.065700
     26 H31          2.7650    -2.5830    -5.0790 hc         1 NYP       0.065700
     27 H4           2.3450    -4.6930    -3.8560 ha         1 NYP       0.140000
     28 H5           2.6060    -4.6790    -1.5600 ha         1 NYP       0.137000
     29 H6           3.5270    -2.2530    -0.9460 hc         1 NYP       0.048700
     30 H61          1.9110    -2.6410    -0.3340 hc         1 NYP       0.048700
@<TRIPOS>BOND
     1     1     2 1
     2     1    13 1
     3     1    14 1
     4     1    15 1
     5     2     3 2
     6     2     6 1
     7     3     4 1
     8     3    16 1
     9     4     5 2
    10     4    17 1
    11     5    18 1
    12     5    19 1
    13     6     7 1
    14     6    20 1
    15     6    21 1
    16     7     8 1
    17     7    12 1
    18     7    22 1
    19     8     9 1
    20     8    23 1
    21     8    24 1
    22     9    10 1
    23     9    25 1
    24     9    26 1
    25    10    11 2
    26    10    27 1
    27    11    12 1
    28    11    28 1
    29    12    29 1
    30    12    30 1
@<TRIPOS>SUBSTRUCTURE
     1 NYP         1 TEMP              0 ****  ****    0 ROOT
