@<TRIPOS>MOLECULE
molecule
   28    28     1     0     0
SMALL
bcc


@<TRIPOS>ATOM
      1 C01          0.0000     0.0000     0.0000 c3         1 NZ2      -0.082100
      2 C02          1.5300     0.0000     0.0000 c3         1 NZ2       0.127500
      3 C03          2.0330     0.0000     1.4200 c          1 NZ2       0.874600
      4 O04          2.1750     1.1600     2.0810 o          1 NZ2      -0.833300
      5 O05          2.3080    -1.0430     1.9640 o          1 NZ2      -0.833300
      6 N06          2.0180    -1.1960    -0.6920 nh         1 NZ2      -0.665900
      7 C07          1.6780    -2.4650    -0.2160 ca         1 NZ2       0.216600
      8 C08          0.3630    -2.9040    -0.2830 ca         1 NZ2      -0.112000
      9 C09          0.0310    -4.1590     0.1870 ca         1 NZ2      -0.126500
     10 C10          1.0050    -4.9780     0.7260 ca         1 NZ2      -0.151000
     11 C11          2.3170    -4.5430     0.7940 ca         1 NZ2      -0.126500
     12 C12          2.6570    -3.2920     0.3210 ca         1 NZ2      -0.112000
     13 S13          2.9720    -1.0430    -2.0360 s6         1 NZ2       1.328900
     14 C14          4.6500    -0.8310    -1.3790 c3         1 NZ2      -0.252300
     15 O15          2.8500    -2.2960    -2.6960 o          1 NZ2      -0.649300
     16 O16          2.5230     0.1560    -2.6510 o          1 NZ2      -0.649300
     17 H1          -0.3610    -0.6720     0.7690 hc         1 NZ2       0.032033
     18 H2          -0.3610    -0.3300    -0.9670 hc         1 NZ2       0.032033
     19 H3          -0.3610     1.0020     0.1980 hc         1 NZ2       0.032033
     20 H4           1.8900     0.8850    -0.5100 h1         1 NZ2       0.072700
     21 H6          -0.4020    -2.2630    -0.7050 ha         1 NZ2       0.130500
     22 H7          -0.9960    -4.5020     0.1350 ha         1 NZ2       0.111500
     23 H8           0.7410    -5.9620     1.0950 ha         1 NZ2       0.107000
     24 H9           3.0790    -5.1880     1.2140 ha         1 NZ2       0.111500
     25 H10          3.6840    -2.9530     0.3750 ha         1 NZ2       0.130500
     26 H11          4.6150    -0.2090    -0.4930 h1         1 NZ2       0.095367
     27 H12          5.0630    -1.8000    -1.1240 h1         1 NZ2       0.095367
     28 H13          5.2740    -0.3590    -2.1280 h1         1 NZ2       0.095367
@<TRIPOS>BOND
     1     5     3 1
     2     1     2 1
     3     3     4 1
     4     3     2 1
     5     2     6 1
     6     6     7 1
     7     6    13 1
     8    12     7 ar
     9    12    11 ar
    10     7     8 ar
    11    11    10 ar
    12    10     9 ar
    13     9     8 ar
    14    15    13 2
    15    13    14 1
    16    13    16 2
    17     1    17 1
    18     1    18 1
    19     1    19 1
    20     2    20 1
    21     8    21 1
    22     9    22 1
    23    10    23 1
    24    11    24 1
    25    12    25 1
    26    14    26 1
    27    14    27 1
    28    14    28 1
@<TRIPOS>SUBSTRUCTURE
     1 NZ2         1 TEMP              0 ****  ****    0 ROOT
