@<TRIPOS>MOLECULE
molecule
   28    28     1     0     0
SMALL
bcc


@<TRIPOS>ATOM
      1 C01          0.0000     0.0000     0.0000 c3         1 NZ3      -0.086100
      2 C02          1.5300     0.0000     0.0000 c3         1 NZ3       0.128500
      3 C03          2.0330     0.0000     1.4210 c          1 NZ3       0.894600
      4 O04          1.7080    -1.0060     2.2470 o          1 NZ3      -0.834800
      5 O05          2.7270     0.9060     1.8170 o          1 NZ3      -0.834800
      6 N06          2.0190     1.1960    -0.6900 nh         1 NZ3      -0.654900
      7 C07          1.5840     2.4620    -0.2880 ca         1 NZ3       0.168600
      8 C08          0.2860     2.8720    -0.5640 ca         1 NZ3      -0.093500
      9 C09         -0.1400     4.1230    -0.1640 ca         1 NZ3      -0.146000
     10 C10          0.7230     4.9670     0.5120 ca         1 NZ3      -0.141000
     11 C11          2.0150     4.5610     0.7890 ca         1 NZ3      -0.146000
     12 C12          2.4470     3.3090     0.3960 ca         1 NZ3      -0.093500
     13 S13          3.0860     1.0500    -1.9480 s6         1 NZ3       1.326900
     14 C14          2.0370     0.9840    -3.4260 c3         1 NZ3      -0.264300
     15 O15          3.8310     2.2590    -1.9190 o          1 NZ3      -0.634300
     16 O16          3.7160    -0.2050    -1.7280 o          1 NZ3      -0.634300
     17 H1          -0.3610    -0.9850     0.2710 hc         1 NZ3       0.028367
     18 H2          -0.3610     0.2580    -0.9880 hc         1 NZ3       0.028367
     19 H3          -0.3610     0.7270     0.7180 hc         1 NZ3       0.028367
     20 H4           1.8910    -0.8840    -0.5110 h1         1 NZ3       0.072700
     21 H6          -0.3910     2.2120    -1.0930 ha         1 NZ3       0.148000
     22 H7          -1.1520     4.4450    -0.3790 ha         1 NZ3       0.115000
     23 H8           0.3870     5.9490     0.8220 ha         1 NZ3       0.108000
     24 H9           2.6890     5.2230     1.3200 ha         1 NZ3       0.115000
     25 H10          3.4590     2.9910     0.6130 ha         1 NZ3       0.148000
     26 H11          2.6560     0.8310    -4.3020 h1         1 NZ3       0.085033
     27 H12          1.3340     0.1650    -3.3330 h1         1 NZ3       0.085033
     28 H13          1.4940     1.9160    -3.5250 h1         1 NZ3       0.085033
@<TRIPOS>BOND
     1     1     2 1
     2     2     6 1
     3     2     3 1
     4     5     3 1
     5    15    13 2
     6    16    13 2
     7    12    11 ar
     8    12     7 ar
     9     6    13 1
    10     6     7 1
    11     3     4 1
    12    13    14 1
    13    11    10 ar
    14     7     8 ar
    15    10     9 ar
    16     8     9 ar
    17     1    17 1
    18     1    18 1
    19     1    19 1
    20     2    20 1
    21     8    21 1
    22     9    22 1
    23    10    23 1
    24    11    24 1
    25    12    25 1
    26    14    26 1
    27    14    27 1
    28    14    28 1
@<TRIPOS>SUBSTRUCTURE
     1 NZ3         1 TEMP              0 ****  ****    0 ROOT
