@<TRIPOS>MOLECULE
NZ9
   23    24     1     0     0
SMALL
bcc


@<TRIPOS>ATOM
      1 C01          0.0000     0.0000     0.0000 cc         1 NZ9      -0.054000
      2 C02          1.3380     0.0000     0.0000 cd         1 NZ9      -0.121100
      3 S03          1.9490     0.0000     1.5930 ss         1 NZ9      -0.220800
      4 C04          0.3260     0.0010     2.2670 cd         1 NZ9       0.169300
      5 C05         -0.5820     0.0010     1.2450 cc         1 NZ9      -0.197500
      6 S06         -2.3260     0.0070     1.4980 sy         1 NZ9       1.052200
      7 O07         -2.9200     0.0720     0.2090 o          1 NZ9      -0.595300
      8 O08         -2.6000    -1.0310     2.4290 o          1 NZ9      -0.595300
      9 N09         -2.7050     1.4290     2.2590 n7         1 NZ9      -0.497100
     10 C10         -2.4990     2.7060     1.5700 cx         1 NZ9       0.159500
     11 C11         -3.5120     3.8220     1.8330 cx         1 NZ9      -0.117900
     12 C12         -2.1030     3.9120     2.4230 cx         1 NZ9      -0.117900
     13 C13         -0.0010    -0.0000     3.6940 c          1 NZ9       0.978200
     14 O14         -1.1590     0.1070     4.0530 o          1 NZ9      -0.848800
     15 O15          0.9810    -0.1170     4.6110 o          1 NZ9      -0.848800
     16 H1          -0.5810    -0.0000    -0.9140 ha         1 NZ9       0.120000
     17 H2           1.9520    -0.0000    -0.8930 h4         1 NZ9       0.133000
     18 H3          -3.1220     1.4130     3.1690 hn         1 NZ9       0.363800
     19 H4          -2.0800     2.7000     0.5710 h1         1 NZ9       0.065700
     20 H5          -3.7120     4.4790     0.9950 hc         1 NZ9       0.043450
     21 H6          -4.3000     3.5820     2.5370 hc         1 NZ9       0.043450
     22 H7          -1.4410     4.6250     1.9460 hc         1 NZ9       0.043450
     23 H8          -2.0290     3.7280     3.4880 hc         1 NZ9       0.043450
@<TRIPOS>BOND
     1     1     2 2   
     2     1     5 1   
     3     1    16 1   
     4     2     3 1   
     5     2    17 1   
     6     3     4 1   
     7     4     5 2   
     8     4    13 1   
     9     5     6 1   
    10     6     7 2   
    11     6     8 2   
    12     6     9 1   
    13     9    10 1   
    14     9    18 1   
    15    10    11 1   
    16    10    12 1   
    17    10    19 1   
    18    11    12 1   
    19    11    20 1   
    20    11    21 1   
    21    12    22 1   
    22    12    23 1   
    23    13    14 1   
    24    13    15 1   
@<TRIPOS>SUBSTRUCTURE
     1 NZ9         1 TEMP              0 ****  ****    0 ROOT
