@<TRIPOS>MOLECULE
molecule
   23    24     1     0     0
SMALL
bcc


@<TRIPOS>ATOM
      1 C01          0.0000     0.0000     0.0000 cc         1 NZ9      -0.088000
      2 C02          1.3380     0.0000     0.0000 cd         1 NZ9      -0.185100
      3 S03          1.9490     0.0000     1.5930 ss         1 NZ9      -0.070800
      4 C04          0.3260     0.0010     2.2670 cd         1 NZ9       0.102300
      5 C05         -0.5820     0.0010     1.2450 cc         1 NZ9      -0.355500
      6 S06         -2.3260     0.0070     1.4980 sy         1 NZ9       1.463200
      7 O07         -2.9200     0.0720     0.2090 o          1 NZ9      -0.651300
      8 O08         -2.6000    -1.0310     2.4290 o          1 NZ9      -0.651300
      9 N09         -2.7050     1.4290     2.2590 n7         1 NZ9      -0.854100
     10 C10         -2.4990     2.7060     1.5700 cx         1 NZ9       0.204500
     11 C11         -3.5120     3.8220     1.8330 cx         1 NZ9      -0.165900
     12 C12         -2.1030     3.9120     2.4230 cx         1 NZ9      -0.165900
     13 C13         -0.0010    -0.0000     3.6940 c          1 NZ9       0.888200
     14 O14         -1.1590     0.1070     4.0530 o          1 NZ9      -0.807300
     15 O15          0.9810    -0.1170     4.6110 o          1 NZ9      -0.807300
     16 H1          -0.5810    -0.0000    -0.9140 ha         1 NZ9       0.141000
     17 H2           1.9520    -0.0000    -0.8930 h4         1 NZ9       0.147000
     18 H3          -3.1220     1.4130     3.1690 hn         1 NZ9       0.470800
     19 H4          -2.0800     2.7000     0.5710 h1         1 NZ9       0.099700
     20 H5          -3.7120     4.4790     0.9950 hc         1 NZ9       0.071700
     21 H6          -4.3000     3.5820     2.5370 hc         1 NZ9       0.071700
     22 H7          -1.4410     4.6250     1.9460 hc         1 NZ9       0.071700
     23 H8          -2.0290     3.7280     3.4880 hc         1 NZ9       0.071700
@<TRIPOS>BOND
     1    11    12 1
     2    11    10 1
     3    12    10 1
     4     2     3 1
     5     2     1 2
     6     3     4 1
     7     1     5 1
     8    10     9 1
     9     4     5 2
    10     4    13 1
    11     5     6 1
    12    14    13 1
    13    13    15 1
    14     8     6 2
    15     9     6 1
    16     6     7 2
    17     1    16 1
    18     2    17 1
    19     9    18 1
    20    10    19 1
    21    11    20 1
    22    11    21 1
    23    12    22 1
    24    12    23 1
@<TRIPOS>SUBSTRUCTURE
     1 NZ9         1 TEMP              0 ****  ****    0 ROOT
