@<TRIPOS>MOLECULE
molecule
   42    45     1     0     0
SMALL
bcc


@<TRIPOS>ATOM
      1 CAM          0.0000     0.0000     0.0000 ca         1 NZA      -0.098000
      2 CAJ          1.3820     0.0000     0.0000 ca         1 NZA      -0.142000
      3 CAT          2.0730     0.0000     1.1990 ca         1 NZA       0.029400
      4 ClAC         3.8100     0.0010     1.2000 cl         1 NZA      -0.147400
      5 CAK          1.3810     0.0010     2.3960 ca         1 NZA      -0.142000
      6 CAN         -0.0010     0.0020     2.3950 ca         1 NZA      -0.098000
      7 CAV         -0.6910     0.0010     1.1970 ca         1 NZA      -0.105300
      8 CAQ         -2.1980     0.0020     1.1960 c3         1 NZA       0.090600
      9 NBB         -2.6870    -1.3790     1.1960 na         1 NZA      -0.041400
     10 CAY         -2.9480    -2.1350     0.0590 cc         1 NZA       0.028700
     11 CAS         -2.7820    -1.6960    -1.2750 c          1 NZA       0.879800
     12 OAB         -2.3380    -0.4460    -1.5250 o          1 NZA      -0.808300
     13 OAA         -3.0420    -2.4460    -2.2000 o          1 NZA      -0.808300
     14 CBA         -2.9520    -2.1240     2.3230 ca         1 NZA      -0.048200
     15 CAO         -2.8540    -1.8450     3.6840 ca         1 NZA      -0.133000
     16 CAL         -3.1950    -2.8080     4.6070 ca         1 NZA      -0.129000
     17 CAU         -3.6380    -4.0590     4.1960 ca         1 NZA      -0.004600
     18 ClAD        -4.0620    -5.2560     5.3800 cl         1 NZA      -0.149400
     19 CAP         -3.7420    -4.3550     2.8660 ca         1 NZA      -0.076000
     20 CAZ         -3.4010    -3.3920     1.9110 ca         1 NZA      -0.069800
     21 CAX         -3.3920    -3.3850     0.4460 cd         1 NZA      -0.093600
     22 SAR         -3.8560    -4.7120    -0.6170 ss         1 NZA      -0.126500
     23 CAW         -2.3020    -5.5220    -0.7910 ca         1 NZA       0.046900
     24 CAH         -1.1800    -5.0240    -0.1400 ca         1 NZA      -0.128500
     25 CAF          0.0380    -5.6620    -0.2780 ca         1 NZA      -0.121000
     26 CAE          0.1400    -6.7950    -1.0640 ca         1 NZA      -0.162000
     27 CAG         -0.9750    -7.2940    -1.7140 ca         1 NZA      -0.121000
     28 CAI         -2.1960    -6.6650    -1.5740 ca         1 NZA      -0.128500
     29 HAM         -0.5420    -0.0000    -0.9380 ha         1 NZA       0.174500
     30 HAJ          1.9240    -0.0010    -0.9380 ha         1 NZA       0.134500
     31 HAK          1.9220     0.0010     3.3350 ha         1 NZA       0.134500
     32 HAN         -0.5440     0.0030     3.3320 ha         1 NZA       0.174500
     33 HAQ1        -2.5590     0.5120     0.3110 h1         1 NZA       0.084700
     34 HAQ2        -2.5590     0.5130     2.0800 h1         1 NZA       0.084700
     35 HAO         -2.5100    -0.8730     4.0160 ha         1 NZA       0.123000
     36 HAL         -3.1180    -2.5880     5.6650 ha         1 NZA       0.127000
     37 HAP         -4.0870    -5.3330     2.5520 ha         1 NZA       0.146000
     38 HAH         -1.2600    -4.1360     0.4760 ha         1 NZA       0.139000
     39 HAF          0.9130    -5.2740     0.2290 ha         1 NZA       0.116500
     40 HAE          1.0970    -7.2910    -1.1740 ha         1 NZA       0.110000
     41 HAG         -0.8910    -8.1830    -2.3270 ha         1 NZA       0.116500
     42 HAI         -3.0680    -7.0570    -2.0830 ha         1 NZA       0.139000
@<TRIPOS>BOND
     1     1     2 ar
     2     1     7 ar
     3     1    29 1
     4     2     3 ar
     5     2    30 1
     6     3     4 1
     7     3     5 ar
     8     5     6 ar
     9     5    31 1
    10     6     7 ar
    11     6    32 1
    12     7     8 1
    13     8     9 1
    14     8    33 1
    15     8    34 1
    16     9    14 1
    17     9    10 1
    18    10    11 1
    19    10    21 2
    20    11    13 1
    21    11    12 1
    22    14    15 ar
    23    14    20 ar
    24    15    16 ar
    25    15    35 1
    26    16    17 ar
    27    16    36 1
    28    17    18 1
    29    17    19 ar
    30    19    20 ar
    31    19    37 1
    32    20    21 1
    33    21    22 1
    34    22    23 1
    35    23    28 ar
    36    23    24 ar
    37    24    25 ar
    38    24    38 1
    39    25    26 ar
    40    25    39 1
    41    26    27 ar
    42    26    40 1
    43    27    28 ar
    44    27    41 1
    45    28    42 1
@<TRIPOS>SUBSTRUCTURE
     1 NZA         1 TEMP              0 ****  ****    0 ROOT
