@<TRIPOS>MOLECULE
NZA
   42    45     1     0     0
SMALL
bcc


@<TRIPOS>ATOM
      1 CAM         0.3010   -0.3410    0.4850 ca        1 NZA     -0.105000
      2 CAJ         1.6630   -0.1130    0.6790 ca        1 NZA     -0.135000
      3 CAT         2.0880    0.6130    1.7950 ca        1 NZA      0.017400
      4 CLAC        3.7540    0.8990    2.0340 cl        1 NZA     -0.127400
      5 CAK         1.1660    1.1070    2.7210 ca        1 NZA     -0.135000
      6 CAN        -0.1930    0.8710    2.5220 ca        1 NZA     -0.105000
      7 CAV        -0.6310    0.1550    1.4050 ca        1 NZA     -0.105300
      8 CAQ        -2.1030   -0.0510    1.1690 c3        1 NZA      0.079600
      9 NBB        -2.5380   -1.4180    1.2060 na        1 NZA     -0.060400
     10 CAY        -2.7190   -2.2390    0.0890 cc        1 NZA      0.029700
     11 CAS        -2.3950   -1.6940   -1.3130 c         1 NZA      0.925800
     12 OAB        -3.2190   -0.8950   -1.8170 o         1 NZA     -0.790800
     13 OAA        -1.2870   -2.0400   -1.8000 o         1 NZA     -0.790800
     14 CBA        -2.8520   -2.1470    2.3630 ca        1 NZA     -0.059200
     15 CAO        -2.8320   -1.7880    3.7150 ca        1 NZA     -0.130000
     16 CAL        -3.2160   -2.7380    4.6530 ca        1 NZA     -0.141000
     17 CAU        -3.6130   -4.0230    4.2470 ca        1 NZA     -0.005600
     18 CLAD       -4.0750   -5.1530    5.4470 cl        1 NZA     -0.144400
     19 CAP        -3.6420   -4.4050    2.9070 ca        1 NZA     -0.093000
     20 CAZ        -3.2620   -3.4720    1.9460 ca        1 NZA     -0.029800
     21 CAX        -3.1790   -3.5070    0.4970 cd        1 NZA     -0.174600
     22 SAR        -3.7140   -4.7890   -0.4190 ss        1 NZA     -0.086500
     23 CAW        -2.3580   -5.6920   -0.8990 ca        1 NZA     -0.018100
     24 CAH        -1.0910   -5.1580   -1.1580 ca        1 NZA     -0.118000
     25 CAF        -0.0590   -5.9840   -1.5990 ca        1 NZA     -0.134000
     26 CAE        -0.2820   -7.3460   -1.8040 ca        1 NZA     -0.155000
     27 CAG        -1.5480   -7.8800   -1.5640 ca        1 NZA     -0.134000
     28 CAI        -2.5770   -7.0610   -1.1080 ca        1 NZA     -0.118000
     29 HAM        -0.0500   -0.9170   -0.3980 ha        1 NZA      0.166500
     30 HAJ         2.3910   -0.5060   -0.0450 ha        1 NZA      0.141000
     31 HAK         1.5060    1.6730    3.6000 ha        1 NZA      0.141000
     32 HAN        -0.9210    1.2520    3.2540 ha        1 NZA      0.166500
     33 HAQ1       -2.6880    0.5230    1.9440 h1        1 NZA      0.081200
     34 HAQ2       -2.3610    0.3570    0.1420 h1        1 NZA      0.081200
     35 HAO        -2.5150   -0.7850    4.0280 ha        1 NZA      0.126000
     36 HAL        -3.2070   -2.4820    5.7210 ha        1 NZA      0.128000
     37 HAP        -3.9540   -5.4140    2.6030 ha        1 NZA      0.152000
     38 HAH        -0.9230   -4.0680   -1.0450 ha        1 NZA      0.157500
     39 HAF         0.9320   -5.5520   -1.7990 ha        1 NZA      0.117500
     40 HAE         0.5320   -7.9930   -2.1560 ha        1 NZA      0.111000
     41 HAG        -1.7340   -8.9510   -1.7300 ha        1 NZA      0.117500
     42 HAI        -3.5720   -7.4880   -0.9070 ha        1 NZA      0.157500
@<TRIPOS>BOND
     1    1    2 ar  
     2    1    7 ar  
     3    1   29 1   
     4    2    3 ar  
     5    2   30 1   
     6    3    4 1   
     7    3    5 ar  
     8    5    6 ar  
     9    5   31 1   
    10    6    7 ar  
    11    6   32 1   
    12    7    8 1   
    13    8    9 1   
    14    8   33 1   
    15    8   34 1   
    16    9   10 1   
    17    9   14 1   
    18   10   11 1   
    19   10   21 2   
    20   11   12 1   
    21   11   13 1   
    22   14   15 ar  
    23   14   20 ar  
    24   15   16 ar  
    25   15   35 1   
    26   16   17 ar  
    27   16   36 1   
    28   17   18 1   
    29   17   19 ar  
    30   19   20 ar  
    31   19   37 1   
    32   20   21 1   
    33   21   22 1   
    34   22   23 1   
    35   23   24 ar  
    36   23   28 ar  
    37   24   25 ar  
    38   24   38 1   
    39   25   26 ar  
    40   25   39 1   
    41   26   27 ar  
    42   26   40 1   
    43   27   28 ar  
    44   27   41 1   
    45   28   42 1   
@<TRIPOS>SUBSTRUCTURE
     1 NZA         1 TEMP              0 ****  ****    0 ROOT
