@<TRIPOS>MOLECULE
molecule
   70    73     1     0     0
SMALL
bcc


@<TRIPOS>ATOM
      1 C17          0.0000     0.0000     0.0000 c3         1 NZF       0.126700
      2 O1           1.4280     0.0000     0.0000 os         1 NZF      -0.310900
      3 C15          2.0460     0.0000     1.2110 ca         1 NZF       0.172600
      4 C16          1.2920    -0.0010     2.3740 ca         1 NZF      -0.270500
      5 C14          3.4350    -0.0060     1.2840 ca         1 NZF       0.027100
      6 O2           4.1760    -0.0110     0.1410 os         1 NZF      -0.323900
      7 C18          4.5350     1.2600    -0.4050 c3         1 NZF       0.133700
      8 C13          4.0650    -0.0060     2.5220 ca         1 NZF       0.172600
      9 O3           5.4230    -0.0120     2.5930 os         1 NZF      -0.310900
     10 C19          6.0040    -0.0120     3.8990 c3         1 NZF       0.126700
     11 C12          3.3100    -0.0010     3.6830 ca         1 NZF      -0.270500
     12 C11          1.9230    -0.0000     3.6110 ca         1 NZF       0.231600
     13 N4           1.1610    -0.0010     4.7850 nu         1 NZF      -0.755300
     14 C10          1.6210     0.6640     5.9090 ca         1 NZF       0.957900
     15 N3           0.9460     0.5580     7.0440 nb         1 NZF      -0.846000
     16 N2           2.7280     1.3870     5.8250 nb         1 NZF      -0.809000
     17 C9           3.2000     2.0370     6.8790 ca         1 NZF       0.503200
     18 C8           2.5230     1.9570     8.0800 ca         1 NZF      -0.446600
     19 C7           1.3610     1.1840     8.1400 ca         1 NZF       0.697200
     20 N1           0.6530     1.0710     9.3260 nh         1 NZF      -0.672300
     21 C3          -0.5260     0.2120     9.1540 c3         1 NZF       0.194800
     22 C2           0.2770     2.3920     9.8420 c3         1 NZF       0.170800
     23 C1          -0.3730     2.2370    11.2190 c3         1 NZF      -0.084400
     24 C5          -1.6120     1.3460    11.0970 c3         1 NZF      -0.079400
     25 C4          -1.2000    -0.0070    10.5100 c3         1 NZF      -0.150700
     26 C6          -0.2360    -0.6890    11.4470 c          1 NZF       0.659100
     27 O4           0.8810    -0.9710    11.0680 o          1 NZF      -0.579100
     28 N5          -0.6140    -0.9840    12.7060 ns         1 NZF      -0.592900
     29 C20          0.3230    -1.6470    13.6170 c3         1 NZF       0.162300
     30 C21         -0.3420    -1.8620    14.9510 ca         1 NZF      -0.085300
     31 C27         -0.2550    -0.8920    15.9310 ca         1 NZF      -0.122000
     32 C22         -1.0410    -3.0300    15.1940 ca         1 NZF      -0.135000
     33 C23         -1.6530    -3.2320    16.4170 ca         1 NZF      -0.092000
     34 C24         -1.5660    -2.2660    17.4020 ca         1 NZF      -0.194000
     35 C25         -0.8670    -1.0910    17.1590 ca         1 NZF       0.122100
     36 O5          -0.7840    -0.1380    18.1250 os         1 NZF      -0.340900
     37 C26         -1.4380    -0.4110    19.3650 c3         1 NZF       0.796700
     38 F2          -0.8970    -1.5700    19.9320 f          1 NZF      -0.204300
     39 F3          -1.2530     0.6660    20.2370 f          1 NZF      -0.204300
     40 F1          -2.8050    -0.5980    19.1390 f          1 NZF      -0.204300
     41 H1          -0.3610     0.8760     0.5240 h1         1 NZF       0.042367
     42 H2          -0.3610     0.0160    -1.0210 h1         1 NZF       0.042367
     43 H3          -0.3610    -0.8920     0.4970 h1         1 NZF       0.042367
     44 H4           0.2100    -0.0000     2.3180 ha         1 NZF       0.153000
     45 H5           4.1410     2.0470     0.2260 h1         1 NZF       0.032033
     46 H6           5.6140     1.3400    -0.4530 h1         1 NZF       0.032033
     47 H7           4.1210     1.3540    -1.4020 h1         1 NZF       0.032033
     48 H8           5.7160     0.8920     4.4230 h1         1 NZF       0.042367
     49 H9           7.0840    -0.0510     3.8140 h1         1 NZF       0.042367
     50 H10          5.6540    -0.8760     4.4510 h1         1 NZF       0.042367
     51 H11          3.8020    -0.0010     4.6490 ha         1 NZF       0.153000
     52 H12          0.2970    -0.5040     4.8200 hn         1 NZF       0.465800
     53 H13          4.1050     2.6260     6.7990 h4         1 NZF       0.028100
     54 H14          2.8870     2.4790     8.9570 ha         1 NZF       0.151000
     55 H15         -0.2190    -0.7430     8.7460 h1         1 NZF       0.063700
     56 H16         -1.2250     0.6910     8.4780 h1         1 NZF       0.063700
     57 H17         -0.4270     2.8570     9.1630 h1         1 NZF       0.046200
     58 H18          1.1630     3.0100     9.9300 h1         1 NZF       0.046200
     59 H19          0.3340     1.7800    11.9020 hc         1 NZF       0.057700
     60 H20         -0.6650     3.2120    11.5910 hc         1 NZF       0.057700
     61 H21         -2.3330     1.8190    10.4410 hc         1 NZF       0.046700
     62 H22         -2.0480     1.1980    12.0770 hc         1 NZF       0.046700
     63 H23         -2.0810    -0.6240    10.3780 hc         1 NZF       0.069700
     64 H24         -1.5470    -0.7830    13.0080 hn         1 NZF       0.315500
     65 H25          0.6160    -2.6030    13.2000 h1         1 NZF       0.062700
     66 H26          1.2010    -1.0250    13.7470 h1         1 NZF       0.062700
     67 H27          0.2910     0.0240    15.7390 ha         1 NZF       0.153000
     68 H28         -1.1110    -3.7890    14.4240 ha         1 NZF       0.141000
     69 H29         -2.1990    -4.1480    16.6050 ha         1 NZF       0.141000
     70 H30         -2.0450    -2.4240    18.3600 ha         1 NZF       0.152000
@<TRIPOS>BOND
     1     7     6 1
     2     6     5 1
     3     2     3 1
     4     2     1 1
     5     5     3 ar
     6     5     8 ar
     7     9     8 1
     8     9    10 1
     9     3     4 ar
    10     8    11 ar
    11    22    23 1
    12    22    20 1
    13     4    12 ar
    14    11    12 ar
    15    12    13 1
    16    23    24 1
    17    20    21 1
    18    20    19 1
    19    24    25 1
    20    15    19 ar
    21    15    14 ar
    22    21    25 1
    23    13    14 1
    24    19    18 ar
    25    27    26 2
    26    14    16 ar
    27    25    26 1
    28    26    28 1
    29    18    17 ar
    30    16    17 ar
    31    28    29 1
    32    29    30 1
    33    30    32 ar
    34    30    31 ar
    35    32    33 ar
    36    31    35 ar
    37    33    34 ar
    38    35    34 ar
    39    35    36 1
    40    40    37 1
    41    36    37 1
    42    37    38 1
    43    37    39 1
    44     1    41 1
    45     1    42 1
    46     1    43 1
    47     4    44 1
    48     7    45 1
    49     7    46 1
    50     7    47 1
    51    10    48 1
    52    10    49 1
    53    10    50 1
    54    11    51 1
    55    13    52 1
    56    17    53 1
    57    18    54 1
    58    21    55 1
    59    21    56 1
    60    22    57 1
    61    22    58 1
    62    23    59 1
    63    23    60 1
    64    24    61 1
    65    24    62 1
    66    25    63 1
    67    28    64 1
    68    29    65 1
    69    29    66 1
    70    31    67 1
    71    32    68 1
    72    33    69 1
    73    34    70 1
@<TRIPOS>SUBSTRUCTURE
     1 NZF         1 TEMP              0 ****  ****    0 ROOT
