@<TRIPOS>MOLECULE
molecule
   43    45     1     0     0
SMALL
bcc


@<TRIPOS>ATOM
      1 N            0.0000     0.0000     0.0000 n          1 NZI      -0.345000
      2 C           -0.7630     0.8750    -3.4600 c3         1 NZI       0.103100
      3 O           -1.8660     1.5130    -4.1070 oh         1 NZI      -0.608800
      4 C1          -0.6760     1.3150    -1.9800 c3         1 NZI      -0.156400
      5 C10         -0.6810     0.0110     4.0810 ca         1 NZI      -0.156000
      6 C11          0.5750     0.0050     3.5070 ca         1 NZI      -0.233000
      7 C2          -0.8580     0.0010    -1.1880 c3         1 NZI       0.333500
      8 C3          -0.9880    -0.6510    -3.3850 c3         1 NZI       0.131100
      9 C4          -0.2340    -1.3560    -4.5140 c3         1 NZI       0.241400
     10 C5           1.3460     0.0000     0.0000 c          1 NZI       0.790500
     11 C6           0.7020     0.0020     2.1260 ca         1 NZI      -0.008400
     12 C7          -0.4390     0.0040     1.3220 ca         1 NZI       0.039600
     13 C8          -1.6970     0.0110     1.9070 ca         1 NZI      -0.217000
     14 C9          -1.8140     0.0140     3.2840 ca         1 NZI      -0.161000
     15 N1           1.8000     0.0000     1.2680 ns         1 NZI      -0.458100
     16 O1          -0.4520    -1.0400    -2.1010 os         1 NZI      -0.348600
     17 O10         -2.3980   -10.0300    -4.8140 o          1 NZI      -0.851833
     18 O11         -1.6010    -9.4460    -7.2500 o          1 NZI      -0.851833
     19 O12          2.0460    -0.0000    -0.9950 o          1 NZI      -0.649500
     20 O2          -0.5460    -2.7510    -4.4980 os         1 NZI      -0.589200
     21 O3          -0.4510    -3.4480    -7.0320 o          1 NZI      -0.858500
     22 O4           1.5500    -3.7190    -5.5170 o          1 NZI      -0.858500
     23 O5          -0.3930    -5.2910    -5.1570 os         1 NZI      -0.724800
     24 O6           1.4150    -7.1020    -4.5540 o          1 NZI      -0.877000
     25 O7           0.5870    -6.8090    -6.9210 o          1 NZI      -0.877000
     26 O8          -1.0060    -7.8450    -5.2590 os         1 NZI      -0.736800
     27 O9           0.0390   -10.1410    -5.4620 o          1 NZI      -0.851833
     28 P            0.0720    -3.8000    -5.5490 p5         1 NZI       1.447800
     29 P1           0.1610    -6.7630    -5.5040 p5         1 NZI       1.524800
     30 P2          -1.2120    -9.3830    -5.6890 p5         1 NZI       1.345900
     31 H            0.1650     1.0950    -3.9740 h1         1 NZI       0.055700
     32 H3          -1.5490     2.2130    -4.6520 ho         1 NZI       0.382000
     33 H4          -1.4710     2.0110    -1.7450 hc         1 NZI       0.049200
     34 H5           0.2940     1.7510    -1.7720 hc         1 NZI       0.049200
     35 H15         -0.7920     0.0130     5.1590 ha         1 NZI       0.087000
     36 H16          1.4100     0.0050     4.1960 ha         1 NZI       0.096000
     37 H1          -1.8970    -0.1280    -0.9100 h2         1 NZI       0.062700
     38 H2          -2.0470    -0.8760    -3.4340 h1         1 NZI       0.066700
     39 H7          -0.5280    -0.9300    -5.4660 h1         1 NZI       0.032700
     40 H6           0.8320    -1.2230    -4.3730 h1         1 NZI       0.032700
     41 H13         -2.7070    -0.0170     1.5180 ha         1 NZI       0.121000
     42 H14         -2.7750     0.0190     3.7830 ha         1 NZI       0.093000
     43 H12          2.7610    -0.0000     1.5460 hn         1 NZI       0.336500
@<TRIPOS>BOND
     1     1     7 1
     2     1    10 1
     3     1    12 1
     4     2     3 1
     5     2     4 1
     6     2     8 1
     7     4     7 1
     8     5     6 ar
     9     5    14 ar
    10     6    11 ar
    11     7    16 1
    12     8     9 1
    13     8    16 1
    14     9    20 1
    15    10    15 1
    16    10    19 2
    17    11    12 ar
    18    11    15 1
    19    12    13 ar
    20    13    14 ar
    21    17    30 1
    22    18    30 1
    23    20    28 1
    24    21    28 1
    25    22    28 1
    26    23    28 1
    27    23    29 1
    28    24    29 1
    29    25    29 1
    30    26    29 1
    31    26    30 1
    32    27    30 1
    33     2    31 1
    34     3    32 1
    35     4    33 1
    36     4    34 1
    37     5    35 1
    38     6    36 1
    39     7    37 1
    40     8    38 1
    41     9    39 1
    42     9    40 1
    43    13    41 1
    44    14    42 1
    45    15    43 1
@<TRIPOS>SUBSTRUCTURE
     1 NZI         1 TEMP              0 ****  ****    0 ROOT
