@<TRIPOS>MOLECULE
NZL
   60    56     1     0     0
SMALL
bcc


@<TRIPOS>ATOM
      1 C27        -0.8480   -0.2030   -1.0690 c2        1 NZL     -0.155000
      2 C26         0.1350    0.7010   -1.0080 c2        1 NZL     -0.185000
      3 C28        -1.5480   -1.5640    2.0460 c1        1 NZL      0.182000
      4 C25         0.9990    0.9120    0.1340 c2        1 NZL     -0.045000
      5 C3          5.4560   -1.2610    2.7870 ca        1 NZL      0.023000
      6 C4          6.7260   -1.0560    3.3070 ca        1 NZL     -0.140000
      7 C1          4.6060    0.6780    4.0230 ca        1 NZL     -0.075000
      8 C23        -2.0320   -1.0750    3.1210 c1        1 NZL     -0.557000
      9 C24         1.1670    0.0290    1.1300 c2        1 NZL     -0.262000
     10 C2          4.3760   -0.3770    3.0810 ca        1 NZL     -0.156000
     11 C5          6.9650    0.0360    4.1410 ca        1 NZL      0.054000
     12 C6          5.8940    0.9170    4.4960 ca        1 NZL      0.086000
     13 C22        -2.5420   -0.5750    4.2320 c2        1 NZL      0.160000
     14 C8          8.7690    0.9140    5.5070 c1        1 NZL      0.068000
     15 C11         2.0280    0.2960    2.3090 c3        1 NZL     -0.178000
     16 C12        -1.7220    0.2180    5.1730 c2        1 NZL     -0.080000
     17 C10         3.1950   -0.5790    2.3610 c2        1 NZL      0.220000
     18 C16         1.4350    1.6690    8.0690 c3        1 NZL     -0.218500
     19 C17         0.1510   -0.1810    9.1500 c3        1 NZL     -0.218500
     20 C18         0.8760    1.1230    9.3580 c3        1 NZL     -0.159000
     21 C19        -1.6130   -1.4140   12.0300 c2        1 NZL     -0.347000
     22 C20        -1.1790   -0.6770   13.0680 c2        1 NZL     -0.039000
     23 N13        -0.7530    1.0020    4.8910 n2        1 NZL     -0.204000
     24 N21        -0.0730   -0.9540   13.8620 n3        1 NZL     -0.340000
     25 O31         3.5320    2.7510    4.6760 o         1 NZL     -0.324000
     26 O30         2.4430    0.8490    5.0440 oh        1 NZL     -0.307000
     27 O15        -3.5830   -0.2620    9.3620 o         1 NZL     -0.158000
     28 O9          8.3090    0.2200    4.5600 os        1 NZL      0.008000
     29 O7          6.2470    1.9300    5.3400 oh        1 NZL     -0.252000
     30 H27        -1.0990   -0.8840   -0.2390 ha        1 NZL      0.135000
     31 H26         1.5390    1.8770    0.1390 ha        1 NZL      0.126000
     32 H28        -1.4770   -0.3100   -1.9650 ha        1 NZL      0.135000
     33 H25         0.3320    1.3720   -1.8640 ha        1 NZL      0.140000
     34 H3          5.2850   -2.1140    2.1020 ha        1 NZL      0.175000
     35 H4          7.5600   -1.7370    3.0570 ha        1 NZL      0.202000
     36 H221       -3.5990   -0.7380    4.5250 ha        1 NZL      0.161000
     37 H222        0.6260   -0.9350    1.1450 ha        1 NZL      0.168000
     38 H11         1.4210    0.0860    3.2530 hc        1 NZL      0.168500
     39 H101        3.1350   -1.4920    1.7230 ha        1 NZL      0.175000
     40 H102        2.3270    1.3820    2.3730 hc        1 NZL      0.168500
     41 H161        1.8300    1.4670    5.4970 ho        1 NZL      0.294000
     42 H162        2.1640    0.9470    7.6240 hc        1 NZL      0.070500
     43 H13        -0.5420    1.1120    3.9180 hn        1 NZL      0.138000
     44 H12        -1.9960    0.0930    6.2510 h4        1 NZL      0.199000
     45 H81C        5.5460    2.6100    5.3770 ho        1 NZL      0.281000
     46 H82C        8.2160    1.5280    6.2360 ha        1 NZL      0.117000
     47 H171       -0.7080   -0.0480    8.4460 hc        1 NZL      0.070500
     48 H172        1.9600    2.6370    8.2510 hc        1 NZL      0.070500
     49 H181       -0.2470   -0.5640   10.1240 hc        1 NZL      0.070500
     50 H182        0.8380   -0.9510    8.7220 hc        1 NZL      0.070500
     51 H191        1.7100    0.9730   10.0950 hc        1 NZL      0.087500
     52 H192        0.1740    1.8750    9.8070 hc        1 NZL      0.087500
     53 H201       -2.4450   -1.0690   11.4060 ha        1 NZL      0.116000
     54 H202       -1.1810   -2.3820   11.7520 ha        1 NZL      0.116000
     55 H211        0.2550   -1.8940   13.8210 hn        1 NZL      0.182000
     56 H212       -1.6660    0.2900   13.3100 h4        1 NZL      0.132000
     57 C14        -3.1570   -0.2290    8.2740 c1        1 NZL      0.162000
     58 H132        0.6150    1.8430    7.3290 hc        1 NZL      0.070500
     59 H213       -0.1410   -0.6100   14.7940 hn        1 NZL      0.182000
     60 C29         3.5170    1.5220    4.5640 c2        1 NZL      0.329000
@<TRIPOS>BOND
     1    1    2 1   
     2    1   30 1   
     3    1   32 1   
     4    2    4 1   
     5    2   33 1   
     6    3    8 1   
     7    4    9 1   
     8    4   31 1   
     9    5    6 1   
    10    5   10 1   
    11    5   34 1   
    12    6   11 1   
    13    6   35 1   
    14    7   10 1   
    15    7   12 1   
    16    7   60 1   
    17    8   13 1   
    18    9   15 1   
    19    9   37 1   
    20   10   17 1   
    21   11   12 1   
    22   11   28 1   
    23   12   29 1   
    24   13   16 1   
    25   13   36 1   
    26   14   28 1   
    27   14   46 1   
    28   15   17 1   
    29   15   38 1   
    30   15   40 1   
    31   16   23 1   
    32   16   44 1   
    33   17   39 1   
    34   18   20 1   
    35   18   42 1   
    36   18   48 1   
    37   18   58 1   
    38   19   20 1   
    39   19   47 1   
    40   19   49 1   
    41   19   50 1   
    42   20   51 1   
    43   20   52 1   
    44   21   22 1   
    45   21   53 1   
    46   21   54 1   
    47   22   24 1   
    48   22   56 1   
    49   23   43 1   
    50   24   55 1   
    51   24   59 1   
    52   25   60 1   
    53   26   41 1   
    54   26   60 1   
    55   27   57 1   
    56   29   45 1   
@<TRIPOS>SUBSTRUCTURE
     1 NZL         1 TEMP              0 ****  ****    0 ROOT
