@<TRIPOS>MOLECULE
molecule
   59    62     1     0     0
SMALL
bcc


@<TRIPOS>ATOM
      1 C27          0.0000     0.0000     0.0000 ca         1 NZL      -0.138000
      2 C26          1.3820     0.0000     0.0000 ca         1 NZL      -0.131000
      3 C28         -0.6890    -0.0010     1.1970 ca         1 NZL      -0.120000
      4 C25          2.0720     0.0000     1.1970 ca         1 NZL      -0.111000
      5 C3           4.5840    -1.1260     2.0060 ca         1 NZL      -0.087000
      6 C4           5.6760    -0.6830     1.2770 ca         1 NZL      -0.155000
      7 C1           4.9880     0.5750     3.6550 ca         1 NZL      -0.036600
      8 C23         -0.0000    -0.0010     2.3980 ca         1 NZL      -0.103300
      9 C24          1.3820    -0.0010     2.3980 ca         1 NZL      -0.060300
     10 C2           4.2370    -0.5070     3.1860 ca         1 NZL      -0.060300
     11 C5           6.4300     0.3870     1.7270 ca         1 NZL       0.022100
     12 C6           6.0910     1.0240     2.9180 ca         1 NZL      -0.121900
     13 C22         -0.5120    -0.0020     3.8230 c3         1 NZL      -0.046100
     14 C8           7.6150     2.2740     1.8730 c3         1 NZL      -0.118800
     15 C11          1.8940    -0.0020     3.8220 c3         1 NZL       0.016600
     16 C12          0.6920    -0.4420     4.6830 c3         1 NZL       0.116700
     17 C10          3.0470    -0.9960     3.9720 c3         1 NZL      -0.247100
     18 C16         -0.0120     0.4680     8.3340 c3         1 NZL      -0.161400
     19 C17         -0.8810    -0.3040     9.3300 c3         1 NZL      -0.062400
     20 C18         -0.8810     0.4230    10.6760 c3         1 NZL      -0.079400
     21 C19         -1.7500    -0.3480    11.6720 c3         1 NZL      -0.110400
     22 C20         -1.7520     0.3780    13.0180 c3         1 NZL       0.090800
     23 N13          0.6920     0.2530     5.9730 ns         1 NZL      -0.559900
     24 N21         -2.5850    -0.3630    13.9740 nz         1 NZL      -0.813600
     25 O31          3.7610     2.2800     4.9060 o          1 NZL      -0.817800
     26 O30          5.0910     0.8540     5.9680 o          1 NZL      -0.817800
     27 O15         -0.6440    -1.2730     6.8720 o          1 NZL      -0.640100
     28 O9           7.5300     1.0020     1.2020 os         1 NZL      -0.292900
     29 O7           6.9770     2.0340     3.1410 os         1 NZL      -0.138900
     30 H27         -0.5460    -0.0010    -0.9360 ha         1 NZL       0.121000
     31 H26          1.9240     0.0020    -0.9380 ha         1 NZL       0.126000
     32 H28         -1.7720    -0.0040     1.1970 ha         1 NZL       0.117000
     33 H25          3.1550    -0.0080     1.2040 ha         1 NZL       0.155000
     34 H3           3.9990    -1.9690     1.6570 ha         1 NZL       0.144000
     35 H4           5.9390    -1.1750     0.3480 ha         1 NZL       0.137000
     36 H221        -1.3290    -0.7050     3.9260 hc         1 NZL       0.053700
     37 H222        -0.8350     0.9920     4.1080 hc         1 NZL       0.053700
     38 H11          2.1990     0.9940     4.1200 hc         1 NZL       0.112700
     39 H101         3.1580    -1.6300     4.8430 hc         1 NZL       0.132200
     40 H102         3.1020     0.0030     4.3880 hc         1 NZL       0.132200
     41 H161        -0.4000     1.4690     8.1870 hc         1 NZL       0.070200
     42 H162         1.0050     0.5280     8.7020 hc         1 NZL       0.070200
     43 H13          1.1620     1.1310     6.0650 hn         1 NZL       0.345500
     44 H12          0.6940    -1.5120     4.8530 h1         1 NZL       0.093700
     45 H81C         7.2990     3.1450     1.3110 h2         1 NZL       0.217700
     46 H82C         6.6720     1.9040     2.2560 h2         1 NZL       0.217700
     47 H171        -0.4720    -1.3000     9.4480 hc         1 NZL       0.063200
     48 H172        -1.8950    -0.3690     8.9530 hc         1 NZL       0.063200
     49 H181        -1.3390     1.3900    10.5060 hc         1 NZL       0.057200
     50 H182         0.1220     0.5640    11.0600 hc         1 NZL       0.057200
     51 H191        -1.3650    -1.3530    11.7960 hc         1 NZL       0.066200
     52 H192        -2.7650    -0.3990    11.2950 hc         1 NZL       0.066200
     53 H201        -0.7390     0.4420    13.3990 hx         1 NZL       0.111700
     54 H202        -2.1500     1.3770    12.8870 hx         1 NZL       0.111700
     55 H211        -2.0830    -0.6310    14.7970 hn         1 NZL       0.453467
     56 H212        -2.9360    -1.1860    13.5260 hn         1 NZL       0.453467
     57 C14         -0.0120    -0.2460     7.0080 c          1 NZL       0.659100
     58 H213        -3.3580     0.2170    14.2340 hn         1 NZL       0.453467
     59 C29          4.6200     1.2410     4.9170 c          1 NZL       0.870200
@<TRIPOS>BOND
     1     1     2 ar
     2     1     3 ar
     3     2     4 ar
     4     3     8 ar
     5     4     9 ar
     6     5     6 ar
     7     5    10 ar
     8     6    11 ar
     9     7    10 ar
    10     7    12 ar
    11     7    59 1
    12     8     9 ar
    13     8    13 1
    14     9    15 1
    15    10    17 1
    16    11    12 ar
    17    11    28 1
    18    12    29 1
    19    59    25 1
    20    59    26 1
    21    57    18 1
    22    57    23 1
    23    57    27 2
    24    13    16 1
    25    14    28 1
    26    14    29 1
    27    15    16 1
    28    15    17 1
    29    16    23 1
    30    18    19 1
    31    19    20 1
    32    20    21 1
    33    21    22 1
    34    22    24 1
    35     1    30 1
    36     2    31 1
    37     3    32 1
    38     4    33 1
    39     5    34 1
    40     6    35 1
    41    13    36 1
    42    13    37 1
    43    15    38 1
    44    17    39 1
    45    17    40 1
    46    18    41 1
    47    18    42 1
    48    23    43 1
    49    16    44 1
    50    14    45 1
    51    14    46 1
    52    19    47 1
    53    19    48 1
    54    20    49 1
    55    20    50 1
    56    21    51 1
    57    21    52 1
    58    22    53 1
    59    22    54 1
    60    24    55 1
    61    24    56 1
    62    58    24 1
@<TRIPOS>SUBSTRUCTURE
     1 NZL         1 TEMP              0 ****  ****    0 ROOT
