@<TRIPOS>MOLECULE
NZN
   49    50     1     0     0
SMALL
bcc


@<TRIPOS>ATOM
      1 O28          0.0000     0.0000     0.0000 o          1 NZN      -0.662100
      2 C27          1.2130     0.0000     0.0000 c          1 NZN       0.569100
      3 N29          1.8870     0.0000     1.1670 ns         1 NZN      -0.196900
      4 C30          1.1550    -0.0010     2.4360 c3         1 NZN       0.050000
      5 C31          2.1500    -0.0010     3.5980 c3         1 NZN      -0.007100
      6 C26          1.9660    -0.0050    -1.3050 c3         1 NZN      -0.083400
      7 C23          0.9710    -0.0100    -2.4690 c3         1 NZN      -0.080400
      8 C22          1.7230    -0.0170    -3.7740 c          1 NZN       0.547100
      9 O24          2.9370    -0.0160    -3.7740 o          1 NZN      -0.596100
     10 N21          1.0490    -0.0220    -4.9410 ns         1 NZN      -0.003100
     11 C16          1.7340     0.0820    -6.1320 cc         1 NZN      -0.025400
     12 C17          3.0890     0.0900    -6.2790 cd         1 NZN      -0.344200
     13 C18          3.3770     0.2100    -7.6490 c          1 NZN       0.623700
     14 O20          4.4890     0.2510    -8.1470 o          1 NZN      -0.686500
     15 N19          2.2080     0.2730    -8.3160 ns         1 NZN      -0.124300
     16 N15          1.1710     0.1890    -7.3780 na         1 NZN      -0.220400
     17 C3          -0.2640     0.2130    -7.6750 c3         1 NZN       0.160500
     18 C2          -0.6430    -1.0340    -8.5010 c3         1 NZN      -0.052400
     19 C4          -0.5930     1.4420    -8.4780 c3         1 NZN      -0.052400
     20 C5          -1.9910     2.0020    -8.1520 c3         1 NZN      -0.020400
     21 C6          -3.0550     0.8990    -7.9960 c3         1 NZN      -0.031900
     22 C7          -2.9230    -0.1810    -9.0360 c3         1 NZN      -0.031900
     23 C1          -2.0670    -1.3240    -8.4460 c3         1 NZN      -0.020400
     24 H1           2.8880     0.0010     1.1660 hn         1 NZN       0.177500
     25 H2           0.5320    -0.8850     2.4930 h1         1 NZN       0.024700
     26 H3           0.5320     0.8840     2.4940 h1         1 NZN       0.024700
     27 H4           1.6090    -0.0020     4.5360 hc         1 NZN       0.008700
     28 H5           2.7720    -0.8860     3.5400 hc         1 NZN       0.008700
     29 H6           2.7730     0.8830     3.5410 hc         1 NZN       0.008700
     30 H7           2.5880     0.8790    -1.3660 hc         1 NZN       0.043700
     31 H8           2.5890    -0.8900    -1.3590 hc         1 NZN       0.043700
     32 H9           0.3480    -0.8940    -2.4070 hc         1 NZN       0.043200
     33 H10          0.3490     0.8740    -2.4150 hc         1 NZN       0.043200
     34 H11          0.0540    -0.1280    -4.9430 hn         1 NZN       0.163500
     35 H12          3.7060    -0.5390    -5.6490 ha         1 NZN       0.179000
     36 H13          2.0990     0.3600    -9.3080 hn         1 NZN       0.209500
     37 H14         -0.8310     0.2210    -6.7520 h1         1 NZN       0.048700
     38 H15         -0.3600    -0.8680    -9.5330 hc         1 NZN       0.028200
     39 H16         -0.0980    -1.8870    -8.1160 hc         1 NZN       0.028200
     40 H17         -0.5560     1.1910    -9.5310 hc         1 NZN       0.028200
     41 H18          0.1460     2.2050    -8.2680 hc         1 NZN       0.028200
     42 H19         -2.2940     2.6680    -8.9510 hc         1 NZN       0.017200
     43 H20         -1.9330     2.5630    -7.2270 hc         1 NZN       0.017200
     44 H21         -2.9530     0.4530    -7.0140 hc         1 NZN       0.019450
     45 H22         -4.0370     1.3480    -8.0830 hc         1 NZN       0.019450
     46 H23         -3.9050    -0.5580    -9.2950 hc         1 NZN       0.019450
     47 H24         -2.4360     0.2200    -9.9170 hc         1 NZN       0.019450
     48 H25         -2.3530    -1.4760    -7.4120 hc         1 NZN       0.017200
     49 H26         -2.2610    -2.2310    -9.0060 hc         1 NZN       0.017200
@<TRIPOS>BOND
     1     1     2 2   
     2     2     3 1   
     3     2     6 1   
     4     3     4 1   
     5     3    24 1   
     6     4     5 1   
     7     4    25 1   
     8     4    26 1   
     9     5    27 1   
    10     5    28 1   
    11     5    29 1   
    12     6     7 1   
    13     6    30 1   
    14     6    31 1   
    15     7     8 1   
    16     7    32 1   
    17     7    33 1   
    18     8     9 2   
    19     8    10 1   
    20    10    11 1   
    21    10    34 1   
    22    11    12 2   
    23    11    16 1   
    24    12    13 1   
    25    12    35 1   
    26    13    14 2   
    27    13    15 1   
    28    15    16 1   
    29    15    36 1   
    30    16    17 1   
    31    17    18 1   
    32    17    19 1   
    33    17    37 1   
    34    18    23 1   
    35    18    38 1   
    36    18    39 1   
    37    19    20 1   
    38    19    40 1   
    39    19    41 1   
    40    20    21 1   
    41    20    42 1   
    42    20    43 1   
    43    21    22 1   
    44    21    44 1   
    45    21    45 1   
    46    22    23 1   
    47    22    46 1   
    48    22    47 1   
    49    23    48 1   
    50    23    49 1   
@<TRIPOS>SUBSTRUCTURE
     1 NZN         1 TEMP              0 ****  ****    0 ROOT
