@<TRIPOS>MOLECULE
molecule
   49    50     1     0     0
SMALL
bcc


@<TRIPOS>ATOM
      1 O28          0.0000     0.0000     0.0000 o          1 NZN      -0.621100
      2 C27          1.2130     0.0000     0.0000 c          1 NZN       0.655100
      3 N29          1.8870     0.0000     1.1670 ns         1 NZN      -0.584900
      4 C30          1.1550    -0.0010     2.4360 c3         1 NZN       0.109000
      5 C31          2.1500    -0.0010     3.5980 c3         1 NZN      -0.113100
      6 C26          1.9660    -0.0050    -1.3050 c3         1 NZN      -0.144400
      7 C23          0.9710    -0.0100    -2.4690 c3         1 NZN      -0.137400
      8 C22          1.7230    -0.0170    -3.7740 c          1 NZN       0.656100
      9 O24          2.9370    -0.0160    -3.7740 o          1 NZN      -0.557100
     10 N21          1.0490    -0.0220    -4.9410 ns         1 NZN      -0.467100
     11 C16          1.7340     0.0820    -6.1320 cc         1 NZN       0.265600
     12 C17          3.0890     0.0900    -6.2790 cd         1 NZN      -0.360200
     13 C18          3.3770     0.2100    -7.6490 c          1 NZN       0.699700
     14 O20          4.4890     0.2510    -8.1470 o          1 NZN      -0.649500
     15 N19          2.2080     0.2730    -8.3160 ns         1 NZN      -0.406300
     16 N15          1.1710     0.1890    -7.3780 na         1 NZN      -0.485400
     17 C3          -0.2640     0.2130    -7.6750 c3         1 NZN       0.261500
     18 C2          -0.6430    -1.0340    -8.5010 c3         1 NZN      -0.100900
     19 C4          -0.5930     1.4420    -8.4780 c3         1 NZN      -0.100900
     20 C5          -1.9910     2.0020    -8.1520 c3         1 NZN      -0.079400
     21 C6          -3.0550     0.8990    -7.9960 c3         1 NZN      -0.083900
     22 C7          -2.9230    -0.1810    -9.0360 c3         1 NZN      -0.083900
     23 C1          -2.0670    -1.3240    -8.4460 c3         1 NZN      -0.079400
     24 H1           2.8880     0.0010     1.1660 hn         1 NZN       0.317500
     25 H2           0.5320    -0.8850     2.4930 h1         1 NZN       0.053200
     26 H3           0.5320     0.8840     2.4940 h1         1 NZN       0.053200
     27 H4           1.6090    -0.0020     4.5360 hc         1 NZN       0.043367
     28 H5           2.7720    -0.8860     3.5400 hc         1 NZN       0.043367
     29 H6           2.7730     0.8830     3.5410 hc         1 NZN       0.043367
     30 H7           2.5880     0.8790    -1.3660 hc         1 NZN       0.078700
     31 H8           2.5890    -0.8900    -1.3590 hc         1 NZN       0.078700
     32 H9           0.3480    -0.8940    -2.4070 hc         1 NZN       0.079700
     33 H10          0.3490     0.8740    -2.4150 hc         1 NZN       0.079700
     34 H11          0.0540    -0.1280    -4.9430 hn         1 NZN       0.323500
     35 H12          3.7060    -0.5390    -5.6490 ha         1 NZN       0.193000
     36 H13          2.0990     0.3600    -9.3080 hn         1 NZN       0.359500
     37 H14         -0.8310     0.2210    -6.7520 h1         1 NZN       0.069700
     38 H15         -0.3600    -0.8680    -9.5330 hc         1 NZN       0.056200
     39 H16         -0.0980    -1.8870    -8.1160 hc         1 NZN       0.056200
     40 H17         -0.5560     1.1910    -9.5310 hc         1 NZN       0.056200
     41 H18          0.1460     2.2050    -8.2680 hc         1 NZN       0.056200
     42 H19         -2.2940     2.6680    -8.9510 hc         1 NZN       0.045950
     43 H20         -1.9330     2.5630    -7.2270 hc         1 NZN       0.045950
     44 H21         -2.9530     0.4530    -7.0140 hc         1 NZN       0.045200
     45 H22         -4.0370     1.3480    -8.0830 hc         1 NZN       0.045200
     46 H23         -3.9050    -0.5580    -9.2950 hc         1 NZN       0.045200
     47 H24         -2.4360     0.2200    -9.9170 hc         1 NZN       0.045200
     48 H25         -2.3530    -1.4760    -7.4120 hc         1 NZN       0.045950
     49 H26         -2.2610    -2.2310    -9.0060 hc         1 NZN       0.045950
@<TRIPOS>BOND
     1     6     2 1
     2     6     7 1
     3     3     4 1
     4     3     2 1
     5     4     5 1
     6     2     1 2
     7     7     8 1
     8     9     8 2
     9     8    10 1
    10    10    11 1
    11    19    17 1
    12    19    20 1
    13    11    16 1
    14    11    12 2
    15    18    17 1
    16    18    23 1
    17    22    23 1
    18    22    21 1
    19    17    16 1
    20    16    15 1
    21    20    21 1
    22    12    13 1
    23    13    15 1
    24    13    14 2
    25     3    24 1
    26     4    25 1
    27     4    26 1
    28     5    27 1
    29     5    28 1
    30     5    29 1
    31     6    30 1
    32     6    31 1
    33     7    32 1
    34     7    33 1
    35    10    34 1
    36    12    35 1
    37    15    36 1
    38    17    37 1
    39    18    38 1
    40    18    39 1
    41    19    40 1
    42    19    41 1
    43    20    42 1
    44    20    43 1
    45    21    44 1
    46    21    45 1
    47    22    46 1
    48    22    47 1
    49    23    48 1
    50    23    49 1
@<TRIPOS>SUBSTRUCTURE
     1 NZN         1 TEMP              0 ****  ****    0 ROOT
