@<TRIPOS>MOLECULE
NZO
   32    34     1     0     0
SMALL
bcc


@<TRIPOS>ATOM
      1 O2           0.0000     0.0000     0.0000 o          1 NZO      -0.675000
      2 C13          1.2150     0.0000     0.0000 c          1 NZO       0.671100
      3 O3           1.8880     0.0000     1.1660 os         1 NZO      -0.414900
      4 C14          1.0970     0.0020     2.3840 c3         1 NZO       0.288700
      5 N3           1.8890    -0.0080    -1.1670 ns         1 NZO       0.039600
      6 C12          1.1980    -0.0150    -2.3640 cc         1 NZO       0.148400
      7 N1          -0.1610    -0.0140    -2.4840 na         1 NZO       0.257700
      8 C8          -0.4530    -0.0230    -3.8380 ca         1 NZO      -0.286200
      9 C7          -1.6280    -0.0270    -4.5650 ca         1 NZO      -0.053000
     10 N2           1.7510    -0.0160    -3.5520 nd         1 NZO      -0.568100
     11 C9           0.7870    -0.0270    -4.5050 ca         1 NZO       0.107400
     12 C10          0.8230    -0.0330    -5.9050 ca         1 NZO      -0.065000
     13 C11         -0.3370    -0.0440    -6.6180 ca         1 NZO      -0.057000
     14 C6          -1.5760    -0.0350    -5.9600 ca         1 NZO      -0.177600
     15 C5          -2.8250    -0.0390    -6.7440 c          1 NZO       0.686300
     16 O1          -2.8420    -0.5210    -7.8620 o          1 NZO      -0.558100
     17 C4          -4.0480     0.5350    -6.1760 cc         1 NZO      -0.100700
     18 C3          -5.2910     0.4790    -6.7470 cd         1 NZO      -0.041000
     19 C2          -6.2590     1.1020    -5.9990 cd         1 NZO      -0.146000
     20 C1          -5.8300     1.6500    -4.8550 cc         1 NZO      -0.013100
     21 S           -4.1550     1.4020    -4.6500 ss         1 NZO      -0.204800
     22 H14          1.7570     0.0030     3.2430 h1         1 NZO       0.004367
     23 H14A         0.4710    -0.8810     2.4100 h1         1 NZO       0.004367
     24 H14B         0.4730     0.8880     2.4080 h1         1 NZO       0.004367
     25 HN3          2.8900     0.0090    -1.1660 hn         1 NZO       0.188500
     26 H7          -2.5830    -0.0200    -4.0560 ha         1 NZO       0.133000
     27 H10          1.7760    -0.0400    -6.4220 ha         1 NZO       0.114000
     28 H11         -0.3040    -0.0510    -7.7000 ha         1 NZO       0.121000
     29 H3          -5.4910    -0.0070    -7.6950 ha         1 NZO       0.137000
     30 H2          -7.2950     1.1490    -6.3120 ha         1 NZO       0.123000
     31 H1          -6.4640     2.1760    -4.1510 h4         1 NZO       0.149000
     32 HN1         -0.8170    -0.1460    -1.7400 hn         1 NZO       0.182700
@<TRIPOS>BOND
     1     1     2 2   
     2     2     3 1   
     3     2     5 1   
     4     3     4 1   
     5     4    22 1   
     6     4    23 1   
     7     4    24 1   
     8     5     6 1   
     9     5    25 1   
    10     6     7 1   
    11     6    10 2   
    12     7     8 1   
    13     7    32 1   
    14     8     9 ar  
    15     8    11 ar  
    16     9    14 ar  
    17     9    26 1   
    18    10    11 1   
    19    11    12 ar  
    20    12    13 ar  
    21    12    27 1   
    22    13    14 ar  
    23    13    28 1   
    24    14    15 1   
    25    15    16 2   
    26    15    17 1   
    27    17    18 2   
    28    17    21 1   
    29    18    19 1   
    30    18    29 1   
    31    19    20 2   
    32    19    30 1   
    33    20    21 1   
    34    20    31 1   
@<TRIPOS>SUBSTRUCTURE
     1 NZO         1 TEMP              0 ****  ****    0 ROOT
