@<TRIPOS>MOLECULE
NZS
   47    50     1     0     0
SMALL
bcc


@<TRIPOS>ATOM
      1 C1           0.0000     0.0000     0.0000 ca         1 NZS      -0.586500
      2 N1           2.0520     0.0000    -1.1660 nb         1 NZS      -0.693000
      3 O1          -5.7250    -1.0460    -4.1820 os         1 NZS      -0.309900
      4 S1           3.0980     0.6840    -6.3270 s6         1 NZS       0.784000
      5 C2           1.4090     0.0000     0.0000 ca         1 NZS       0.357800
      6 N2           0.0550     0.0030    -2.3520 nb         1 NZS      -0.773000
      7 O2           4.0890     0.2220    -7.2350 o          1 NZS      -0.586300
      8 C3           1.3820     0.0010    -2.3060 ca         1 NZS       0.774900
      9 N3           0.6480     0.0000     2.1060 nc         1 NZS      -0.639100
     10 O3           2.2590     1.7690    -6.7020 o          1 NZS      -0.586300
     11 C4          -0.6700     0.0060    -1.2390 ca         1 NZS       0.624200
     12 N4           1.7980     0.0000     1.3070 na         1 NZS       0.383200
     13 C5          -0.4130     0.0000     1.3500 cd         1 NZS       0.473800
     14 N5          -2.0510     0.0130    -1.2950 nu         1 NZS      -0.273300
     15 C6           3.1810    -0.0020     1.7910 c3         1 NZS       0.033600
     16 N6           2.0890    -0.0010    -3.4950 nh         1 NZS      -0.472300
     17 C7          -2.6990     0.1290    -2.5290 ca         1 NZS       0.021600
     18 C8          -3.9050    -0.5250    -2.7440 ca         1 NZS      -0.173000
     19 C9          -4.5450    -0.4080    -3.9670 ca         1 NZS       0.170100
     20 C10         -3.9790     0.3630    -4.9740 ca         1 NZS      -0.221000
     21 C11         -2.7790     1.0120    -4.7580 ca         1 NZS      -0.037000
     22 C12         -2.1410     0.9030    -3.5370 ca         1 NZS      -0.150000
     23 C13         -6.3290    -0.8810    -5.4670 c3         1 NZS       0.245700
     24 C14          1.2130    -0.3100    -4.6270 c3         1 NZS       0.165300
     25 C15          2.0520    -0.7200    -5.8410 c3         1 NZS      -0.005100
     26 C16          3.8980     1.0870    -4.7450 c3         1 NZS      -0.005100
     27 C17          2.8150     1.2580    -3.6770 c3         1 NZS       0.165300
     28 H5          -1.4390     0.0000     1.6990 h4         1 NZS       0.007800
     29 HN5         -2.5860    -0.0330    -0.4510 hn         1 NZS       0.289800
     30 H6           3.6830     0.8960     1.4520 h1         1 NZS       0.023033
     31 H6A          3.1840    -0.0310     2.8730 h1         1 NZS       0.023033
     32 H6B          3.6970    -0.8720     1.4040 h1         1 NZS       0.023033
     33 H8          -4.3760    -1.0730    -1.9370 ha         1 NZS       0.119000
     34 H10         -4.4770     0.4500    -5.9330 ha         1 NZS       0.122000
     35 H11         -2.3410     1.6140    -5.5450 ha         1 NZS       0.107000
     36 H12         -1.2000     1.4130    -3.3710 ha         1 NZS       0.136000
     37 H13         -5.6550    -1.2460    -6.2320 h1         1 NZS      -0.001633
     38 H13A        -7.2560    -1.4410    -5.5040 h1         1 NZS      -0.001633
     39 H13B        -6.5340     0.1690    -5.6370 h1         1 NZS      -0.001633
     40 H14          0.6270     0.5660    -4.8760 h1         1 NZS       0.039200
     41 H14A         0.5520    -1.1250    -4.3570 h1         1 NZS       0.039200
     42 H15          2.6790    -1.5650    -5.5800 h1         1 NZS       0.076450
     43 H15A         1.3970    -0.9860    -6.6620 h1         1 NZS       0.076450
     44 H16          4.4570     2.0090    -4.8450 h1         1 NZS       0.076450
     45 H16A         4.5640     0.2810    -4.4600 h1         1 NZS       0.076450
     46 H17          2.1220     2.0290    -3.9900 h1         1 NZS       0.039200
     47 H17A         3.2780     1.5430    -2.7400 h1         1 NZS       0.039200
@<TRIPOS>BOND
     1     1     5 ar  
     2     1    11 ar  
     3     1    13 1   
     4     2     5 ar  
     5     2     8 ar  
     6     3    19 1   
     7     3    23 1   
     8     4     7 2   
     9     4    10 2   
    10     4    25 1   
    11     4    26 1   
    12     5    12 1   
    13     6     8 ar  
    14     6    11 ar  
    15     8    16 1   
    16     9    12 1   
    17     9    13 2   
    18    11    14 1   
    19    12    15 1   
    20    13    28 1   
    21    14    17 1   
    22    14    29 1   
    23    15    30 1   
    24    15    31 1   
    25    15    32 1   
    26    16    24 1   
    27    16    27 1   
    28    17    18 ar  
    29    17    22 ar  
    30    18    19 ar  
    31    18    33 1   
    32    19    20 ar  
    33    20    21 ar  
    34    20    34 1   
    35    21    22 ar  
    36    21    35 1   
    37    22    36 1   
    38    23    37 1   
    39    23    38 1   
    40    23    39 1   
    41    24    25 1   
    42    24    40 1   
    43    24    41 1   
    44    25    42 1   
    45    25    43 1   
    46    26    27 1   
    47    26    44 1   
    48    26    45 1   
    49    27    46 1   
    50    27    47 1   
@<TRIPOS>SUBSTRUCTURE
     1 NZS         1 TEMP              0 ****  ****    0 ROOT
