@<TRIPOS>MOLECULE
NZT
   56    60     1     0     0
SMALL
bcc


@<TRIPOS>ATOM
      1 CAI          0.0000     0.0000     0.0000 ca         1 NZT       0.043000
      2 CAE          1.3930     0.0000     0.0000 ca         1 NZT      -0.140000
      3 CAO          2.0920     0.0000     1.1690 ca         1 NZT      -0.020000
      4 CBD          1.4000     0.0020     2.3910 ca         1 NZT      -0.180300
      5 CAN          2.0840     0.0030     3.6210 ca         1 NZT      -0.038000
      6 CAD          1.3450     0.0040     4.7690 ca         1 NZT      -0.232300
      7 CAF         -0.0470     0.0030     4.7010 ca         1 NZT       0.440200
      8 NAW         -0.6810     0.0020     3.5530 nb         1 NZT      -0.581000
      9 CBE         -0.0180     0.0020     2.3920 ca         1 NZT       0.453600
     10 CBC         -0.7030     0.0000     1.1650 ca         1 NZT      -0.207800
     11 S1          -2.4650     0.0090     1.1370 sy         1 NZT       1.047200
     12 OAB         -2.8770     1.0210     2.0440 o          1 NZT      -0.579300
     13 OAC         -2.8430    -0.0100    -0.2330 o          1 NZT      -0.579300
     14 NAX         -2.9710    -1.4310     1.7800 nu         1 NZT      -0.385500
     15 CAZ         -2.6250    -2.6290     1.1650 ca         1 NZT       0.079600
     16 CAJ         -2.1500    -3.6910     1.9300 ca         1 NZT      -0.154000
     17 CAL         -1.8060    -4.8770     1.3230 ca         1 NZT      -0.048500
     18 CAK         -2.7580    -2.7650    -0.2140 ca         1 NZT      -0.154000
     19 CAM         -2.4160    -3.9490    -0.8260 ca         1 NZT      -0.048500
     20 CBA         -1.9340    -5.0160    -0.0610 ca         1 NZT      -0.173600
     21 CAY         -1.5660    -6.2860    -0.7150 c          1 NZT       0.618700
     22 OAA         -2.3070    -6.7810    -1.5420 o          1 NZT      -0.642100
     23 NBF         -0.4080    -6.8980    -0.3930 n          1 NZT      -0.157800
     24 CAQ          0.4570    -6.3670     0.6710 c3         1 NZT       0.033500
     25 CAS          1.8810    -6.2410     0.1220 c3         1 NZT       0.125800
     26 CAR          0.0190    -8.1190    -1.0940 c3         1 NZT       0.033500
     27 CAT          1.4590    -7.9220    -1.5790 c3         1 NZT       0.125800
     28 NBG          2.3040    -7.5330    -0.4350 nh         1 NZT      -0.461300
     29 CBB          3.6470    -7.5060    -0.7950 ca         1 NZT       0.373900
     30 NAV          4.3610    -6.4030    -0.6160 nb         1 NZT      -0.602000
     31 CAH          5.6370    -6.3800    -0.9600 ca         1 NZT       0.315900
     32 CAG          6.2280    -7.5040    -1.5050 ca         1 NZT       0.251900
     33 NAU          5.5190    -8.6070    -1.6860 nb         1 NZT      -0.523000
     34 CAP          4.2470    -8.6380    -1.3400 ca         1 NZT       0.264900
     35 H1          -0.5330     0.0000    -0.9430 ha         1 NZT       0.130000
     36 H2           1.9270    -0.0000    -0.9420 ha         1 NZT       0.112000
     37 H3           3.1750     0.0000     1.1570 ha         1 NZT       0.107000
     38 H4           3.1660     0.0030     3.6560 ha         1 NZT       0.111000
     39 H5           1.8410     0.0050     5.7320 ha         1 NZT       0.116000
     40 H6          -0.6200     0.0040     5.6210 h4         1 NZT      -0.018900
     41 H10         -2.0510    -3.5830     3.0030 ha         1 NZT       0.140500
     42 H11         -1.4340    -5.7020     1.9190 ha         1 NZT       0.116500
     43 H12         -3.1320    -1.9380    -0.8070 ha         1 NZT       0.140500
     44 H13         -2.5180    -4.0540    -1.8990 ha         1 NZT       0.116500
     45 H14          0.4520    -7.0450     1.5150 h1         1 NZT       0.043200
     46 H15          0.0990    -5.3920     0.9770 h1         1 NZT       0.043200
     47 H16          2.5530    -5.9570     0.9240 h1         1 NZT       0.030450
     48 H17          1.9020    -5.4890    -0.6570 h1         1 NZT       0.030450
     49 H18         -0.0230    -8.9620    -0.4140 h1         1 NZT       0.043200
     50 H19         -0.6290    -8.2960    -1.9440 h1         1 NZT       0.043200
     51 H20          1.8280    -8.8480    -2.0020 h1         1 NZT       0.030450
     52 H21          1.4840    -7.1400    -2.3290 h1         1 NZT       0.030450
     53 H22          6.2210    -5.4800    -0.8130 h4         1 NZT      -0.012900
     54 H23          7.2740    -7.4810    -1.7870 h4         1 NZT      -0.007900
     55 H24          3.6670    -9.5410    -1.4890 h4         1 NZT       0.000100
     56 H7          -3.5530    -1.4370     2.5940 hn         1 NZT       0.353800
@<TRIPOS>BOND
     1     1     2 ar  
     2     1    10 ar  
     3     1    35 1   
     4     2     3 ar  
     5     2    36 1   
     6     3     4 ar  
     7     3    37 1   
     8     4     5 ar  
     9     4     9 ar  
    10     5     6 ar  
    11     5    38 1   
    12     6     7 ar  
    13     6    39 1   
    14     7     8 ar  
    15     7    40 1   
    16     8     9 ar  
    17     9    10 ar  
    18    10    11 1   
    19    11    12 2   
    20    11    13 2   
    21    11    14 1   
    22    14    15 1   
    23    14    56 1   
    24    15    16 ar  
    25    15    18 ar  
    26    16    17 ar  
    27    16    41 1   
    28    17    20 ar  
    29    17    42 1   
    30    18    19 ar  
    31    18    43 1   
    32    19    20 ar  
    33    19    44 1   
    34    20    21 1   
    35    21    22 2   
    36    21    23 1   
    37    23    24 1   
    38    23    26 1   
    39    24    25 1   
    40    24    45 1   
    41    24    46 1   
    42    25    28 1   
    43    25    47 1   
    44    25    48 1   
    45    26    27 1   
    46    26    49 1   
    47    26    50 1   
    48    27    28 1   
    49    27    51 1   
    50    27    52 1   
    51    28    29 1   
    52    29    30 ar  
    53    29    34 ar  
    54    30    31 ar  
    55    31    32 ar  
    56    31    53 1   
    57    32    33 ar  
    58    32    54 1   
    59    33    34 ar  
    60    34    55 1   
@<TRIPOS>SUBSTRUCTURE
     1 NZT         1 TEMP              0 ****  ****    0 ROOT
