@<TRIPOS>MOLECULE
molecule
   46    49     1     0     0
SMALL
bcc


@<TRIPOS>ATOM
      1 C1           0.0000     0.0000     0.0000 c3         1 NZU       0.074600
      2 N2           1.4640     0.0000     0.0000 na         1 NZU      -0.026800
      3 C3           2.2640     0.0000     1.1050 ca         1 NZU       0.539800
      4 C4           3.5940    -0.0000     0.6380 ca         1 NZU      -0.557500
      5 C5           3.5370    -0.0010    -0.7720 cc         1 NZU       0.402800
      6 N6           2.2850    -0.0070    -1.1350 nd         1 NZU      -0.506100
      7 C7           4.6390     0.0000     1.5860 ca         1 NZU       0.795200
      8 N8           4.3240     0.0010     2.8730 nb         1 NZU      -0.852000
      9 C9           3.0550     0.0010     3.2720 cp         1 NZU       0.830500
     10 N10          2.0430     0.0010     2.4170 nb         1 NZU      -0.803000
     11 C11          2.7620     0.0010     4.7220 cp         1 NZU      -0.082500
     12 C12          1.4580    -0.0040     5.1790 ca         1 NZU      -0.101000
     13 C13          1.1680    -0.0030     6.5400 ca         1 NZU      -0.117000
     14 C14          2.1330     0.0040     7.4930 ca         1 NZU      -0.085000
     15 C15          3.4960     0.0080     7.1320 ca         1 NZU      -0.045000
     16 C16          3.8470     0.0020     5.7040 ca         1 NZU      -0.165000
     17 C17          5.2230     0.0030     5.6370 cc         1 NZU      -0.094100
     18 N18          5.6980     0.0030     6.8910 na         1 NZU       0.007800
     19 N19          4.6350     0.0160     7.8030 nc         1 NZU      -0.275400
     20 N21          5.9590     0.0000     1.1800 nu         1 NZU      -0.903900
     21 C22          7.0310    -0.0000     2.1790 c3         1 NZU       0.246800
     22 C23          8.3870    -0.0010     1.4720 c3         1 NZU      -0.079400
     23 C24          9.5070     0.0000     2.5140 c3         1 NZU      -0.208600
     24 S25         11.1160    -0.0010     1.6740 s6         1 NZU       1.102000
     25 O26         11.2580    -1.2270     0.9710 o          1 NZU      -0.608800
     26 O27         11.2590     1.2240     0.9690 o          1 NZU      -0.608800
     27 C28         12.2690    -0.0000     3.0740 c3         1 NZU      -0.226300
     28 H1          -0.3610     0.8830     0.5130 h1         1 NZU       0.057033
     29 H1A         -0.3610     0.0020    -1.0210 h1         1 NZU       0.057033
     30 H1B         -0.3610    -0.8860     0.5090 h1         1 NZU       0.057033
     31 H5           4.3900    -0.0040    -1.4400 h4         1 NZU       0.052800
     32 H12          0.6450    -0.0100     4.4630 ha         1 NZU       0.154000
     33 H13          0.1310    -0.0080     6.8500 ha         1 NZU       0.132000
     34 H14          1.8540     0.0040     8.5400 ha         1 NZU       0.139000
     35 H17          5.8170    -0.0050     4.7310 h4         1 NZU       0.193000
     36 HN21         6.1830     0.0320     0.2050 hn         1 NZU       0.452800
     37 H22          6.9480     0.8850     2.7990 h1         1 NZU       0.051700
     38 H22A         6.9470    -0.8840     2.7990 h1         1 NZU       0.051700
     39 H23          8.4710    -0.8860     0.8530 hc         1 NZU       0.066200
     40 H23A         8.4710     0.8830     0.8510 hc         1 NZU       0.066200
     41 H24          9.4230    -0.8830     3.1350 h1         1 NZU       0.095700
     42 H24A         9.4240     0.8860     3.1330 h1         1 NZU       0.095700
     43 H28         13.2870    -0.0010     2.7030 h1         1 NZU       0.099033
     44 H28A        12.1050     0.8850     3.6770 h1         1 NZU       0.099033
     45 H28B        12.1050    -0.8840     3.6790 h1         1 NZU       0.099033
     46 HN18         6.6670    -0.0050     7.1390 hn         1 NZU       0.326700
@<TRIPOS>BOND
     1     2     1 1
     2     1    28 1
     3     1    29 1
     4     1    30 1
     5     3     2 1
     6     2     6 1
     7    10     3 ar
     8     4     3 ar
     9     7     4 ar
    10     4     5 1
    11     5     6 2
    12     5    31 1
    13     8     7 ar
    14    20     7 1
    15     8     9 ar
    16    11     9 1
    17     9    10 ar
    18    12    11 ar
    19    11    16 ar
    20    13    12 ar
    21    12    32 1
    22    13    14 ar
    23    13    33 1
    24    14    15 ar
    25    14    34 1
    26    15    19 2
    27    15    16 ar
    28    16    17 2
    29    18    17 1
    30    17    35 1
    31    19    18 1
    32    21    20 1
    33    20    36 1
    34    21    22 1
    35    21    37 1
    36    21    38 1
    37    22    23 1
    38    22    39 1
    39    22    40 1
    40    23    24 1
    41    23    41 1
    42    23    42 1
    43    27    24 1
    44    26    24 2
    45    24    25 2
    46    27    43 1
    47    27    44 1
    48    27    45 1
    49    18    46 1
@<TRIPOS>SUBSTRUCTURE
     1 NZU         1 TEMP              0 ****  ****    0 ROOT
