@<TRIPOS>MOLECULE
molecule
   45    47     1     0     0
SMALL
bcc


@<TRIPOS>ATOM
      1 C1           0.0000     0.0000     0.0000 ca         1 501      -0.096000
      2 C2           1.3820     0.0000     0.0000 ca         1 501      -0.139300
      3 C3           2.0760     0.0000     1.2030 ca         1 501       0.178600
      4 C4           1.3770     0.0100     2.4040 ca         1 501      -0.163000
      5 C5          -0.0040     0.0150     2.3980 ca         1 501       0.053400
      6 C6          -0.6920     0.0100     1.1970 ca         1 501      -0.155000
      7 N10          3.4730    -0.0050     1.2060 nu         1 501      -0.699600
      8 C11          4.1680     0.1790     2.4000 cc         1 501       0.818200
      9 N12          3.6150     0.4770     3.5740 nc         1 501      -0.490300
     10 C13          4.5610     0.5810     4.5020 cd         1 501       0.518500
     11 N14          5.7590     0.3430     3.8880 na         1 501      -0.020800
     12 N15          5.4730     0.0830     2.5420 nd         1 501      -0.687100
     13 N16          4.5140     0.8590     5.8100 nd         1 501      -0.729000
     14 C17          5.6100     0.9060     6.5380 cc         1 501       0.537600
     15 C18          6.8520     0.6670     5.9590 cc         1 501      -0.432300
     16 C19          6.9170     0.3780     4.6090 cd         1 501       0.337300
     17 N21          8.1290     0.1360     4.0000 nu         1 501      -0.793600
     18 C22          9.3650     0.1820     4.7850 c3         1 501       0.232800
     19 C23         10.5580    -0.1210     3.8770 c3         1 501      -0.099400
     20 C26         11.8490    -0.0720     4.6970 c3         1 501      -0.080400
     21 C29         13.0420    -0.3760     3.7880 c3         1 501      -0.091100
     22 C37          5.5170     1.2220     8.0090 c3         1 501      -0.145400
     23 Cl41        -0.8790     0.0290     3.8980 cl         1 501      -0.109400
     24 C42          2.1350    -0.0110    -1.3050 c3         1 501      -0.046800
     25 H1          -0.5410    -0.0020    -0.9380 ha         1 501       0.135000
     26 H4           1.9150     0.0120     3.3440 ha         1 501       0.217000
     27 H6          -1.7750     0.0120     1.1950 ha         1 501       0.140000
     28 H10          3.9740    -0.1810     0.3570 hn         1 501       0.468800
     29 H18          7.7540     0.7050     6.5570 ha         1 501       0.160000
     30 H21          8.1630    -0.0940     3.0260 hn         1 501       0.465800
     31 H221         9.3170    -0.5550     5.5780 h1         1 501       0.049200
     32 H222         9.4820     1.1690     5.2170 h1         1 501       0.049200
     33 H231        10.4410    -1.1080     3.4460 hc         1 501       0.053200
     34 H232        10.6050     0.6150     3.0850 hc         1 501       0.053200
     35 H261        11.8020    -0.8090     5.4890 hc         1 501       0.044700
     36 H262        11.9650     0.9150     5.1280 hc         1 501       0.044700
     37 H291        13.9560    -0.3410     4.3690 hc         1 501       0.037700
     38 H292        13.0890     0.3610     2.9960 hc         1 501       0.037700
     39 H293        12.9250    -1.3630     3.3570 hc         1 501       0.037700
     40 H371         4.4800     1.3770     8.2800 hc         1 501       0.061033
     41 H372         6.0840     2.1210     8.2210 hc         1 501       0.061033
     42 H373         5.9210     0.3960     8.5820 hc         1 501       0.061033
     43 H421         2.8020     0.8410    -1.3450 hc         1 501       0.041700
     44 H422         2.7120    -0.9250    -1.3810 hc         1 501       0.041700
     45 H423         1.4330     0.0420    -2.1280 hc         1 501       0.041700
@<TRIPOS>BOND
     1     1     2 ar  
     2     1     6 ar  
     3     1    25 1   
     4     2     3 ar  
     5     2    24 1   
     6     3     4 ar  
     7     3     7 1   
     8     4     5 ar  
     9     4    26 1   
    10     5     6 ar  
    11     5    23 1   
    12     6    27 1   
    13     7     8 1   
    14     7    28 1   
    15     8     9 1   
    16     8    12 2   
    17     9    10 2   
    18    10    11 1   
    19    10    13 1   
    20    11    12 1   
    21    11    16 1   
    22    13    14 2   
    23    14    15 1   
    24    14    22 1   
    25    15    16 2   
    26    15    29 1   
    27    16    17 1   
    28    17    18 1   
    29    17    30 1   
    30    18    19 1   
    31    18    31 1   
    32    18    32 1   
    33    19    20 1   
    34    19    33 1   
    35    19    34 1   
    36    20    21 1   
    37    20    35 1   
    38    20    36 1   
    39    21    37 1   
    40    21    38 1   
    41    21    39 1   
    42    22    40 1   
    43    22    41 1   
    44    22    42 1   
    45    24    43 1   
    46    24    44 1   
    47    24    45 1   
@<TRIPOS>SUBSTRUCTURE
     1 501         1 TEMP              0 ****  ****    0 ROOT
