@<TRIPOS>MOLECULE
502
   34    34     1     0     0
SMALL
bcc


@<TRIPOS>ATOM
      1 C1           0.0000     0.0000     0.0000 c3         1 502       0.127300
      2 C2           1.5070     0.0000     0.0000 ca         1 502      -0.092300
      3 C6           3.5970     0.0010     1.1610 ca         1 502       0.409200
      4 C7           2.2170     0.0000     1.1950 ca         1 502      -0.211300
      5 C3           2.2150    -0.0070    -1.1880 ca         1 502      -0.208300
      6 C4           3.6050    -0.0070    -1.1480 ca         1 502       0.496200
      7 C9          -1.8130     1.6270    -0.0000 c          1 502       0.581100
      8 N5           4.2460    -0.0000     0.0110 nb         1 502      -0.585000
      9 N8          -0.4880     1.3810    -0.0010 ns         1 502      -0.216900
     10 N10         -2.2620     2.8970    -0.0020 ns         1 502      -0.222900
     11 O11         -2.6030     0.7030    -0.0010 o          1 502      -0.710100
     12 C12         -3.7030     3.1660    -0.0020 c3         1 502       0.025000
     13 C13         -3.9360     4.6540    -0.0030 c          1 502       0.691100
     14 O14         -5.1890     5.1370    -0.0040 os         1 502      -0.407900
     15 O15         -2.9970     5.4140    -0.0040 o          1 502      -0.597000
     16 C16         -5.3390     6.5810    -0.0050 c3         1 502       0.227400
     17 C17         -6.8270     6.9390    -0.0060 c3         1 502      -0.003100
     18 N18          4.3290    -0.0130    -2.3350 nv         1 502      -0.659500
     19 H1          -0.3610    -0.5110    -0.8840 h1         1 502       0.030700
     20 H2          -0.3610    -0.5100     0.8850 h1         1 502       0.030700
     21 H3           4.1550     0.0030     2.0890 h4         1 502      -0.019900
     22 H4           1.6940     0.0010     2.1430 ha         1 502       0.118000
     23 H5           1.6930    -0.0130    -2.1370 ha         1 502       0.123000
     24 H6           0.1620     2.1420    -0.0090 hn         1 502       0.173500
     25 H7          -1.6110     3.6580    -0.0020 hn         1 502       0.195500
     26 H8          -4.1510     2.7310     0.8830 h1         1 502       0.047700
     27 H9          -4.1520     2.7290    -0.8860 h1         1 502       0.047700
     28 H10         -4.8680     6.9920    -0.8890 h1         1 502       0.009700
     29 H11         -4.8690     6.9930     0.8800 h1         1 502       0.009700
     30 H12         -6.9380     8.0170    -0.0060 hc         1 502       0.012033
     31 H13         -7.2970     6.5270    -0.8900 hc         1 502       0.012033
     32 H14         -7.2980     6.5280     0.8790 hc         1 502       0.012033
     33 H15          4.6000     0.8510    -2.7600 hn         1 502       0.277300
     34 H16          4.6000    -0.8820    -2.7510 hn         1 502       0.277300
@<TRIPOS>BOND
     1     1     2 1   
     2     1     9 1   
     3     1    19 1   
     4     1    20 1   
     5     2     4 ar  
     6     2     5 ar  
     7     3     4 ar  
     8     3     8 ar  
     9     3    21 1   
    10     4    22 1   
    11     5     6 ar  
    12     5    23 1   
    13     6     8 ar  
    14     6    18 1   
    15     7     9 1   
    16     7    10 1   
    17     7    11 2   
    18     9    24 1   
    19    10    12 1   
    20    10    25 1   
    21    12    13 1   
    22    12    26 1   
    23    12    27 1   
    24    13    14 1   
    25    13    15 2   
    26    14    16 1   
    27    16    17 1   
    28    16    28 1   
    29    16    29 1   
    30    17    30 1   
    31    17    31 1   
    32    17    32 1   
    33    18    33 1   
    34    18    34 1   
@<TRIPOS>SUBSTRUCTURE
     1 502         1 TEMP              0 ****  ****    0 ROOT
