@<TRIPOS>MOLECULE
molecule
   63    67     1     0     0
SMALL
bcc


@<TRIPOS>ATOM
      1 C1           0.0000     0.0000     0.0000 ca         1 504      -0.086000
      2 C2           1.3830     0.0000     0.0000 ca         1 504      -0.149000
      3 C3           2.0770     0.0000     1.1960 ca         1 504      -0.041300
      4 C4           1.3900     0.0010     2.3950 ca         1 504      -0.141000
      5 C5           0.0020     0.0020     2.3970 ca         1 504       0.148100
      6 C6          -0.6910     0.0020     1.1960 ca         1 504      -0.214000
      7 O7          -0.6750     0.0030     3.5760 os         1 504      -0.330900
      8 C8          -2.1020     0.0040     3.5020 c3         1 504       0.137400
      9 C9          -2.6850     0.0050     4.9170 c3         1 504      -0.084400
     10 C10         -4.2130     0.0060     4.8390 c3         1 504      -0.075400
     11 C11         -4.7960     0.0070     6.2530 c3         1 504      -0.070700
     12 C12         -6.3200     0.1340     6.1790 c3         1 504      -0.074900
     13 C13         -6.9020     0.0740     7.5930 c3         1 504       0.158800
     14 N14         -6.5290    -1.1990     8.2230 n7         1 504      -0.818200
     15 C15         -5.0710    -1.3220     8.3490 c3         1 504       0.158800
     16 C16         -4.4340    -1.3040     6.9580 c3         1 504      -0.074900
     17 C17          3.5840    -0.0010     1.1910 c3         1 504      -0.100100
     18 C18          4.0870     1.4200     1.1890 c          1 504       0.653100
     19 O19          3.2990     2.3420     1.1910 o          1 504      -0.567100
     20 N20          5.4120     1.6650     1.1850 ns         1 504      -0.522400
     21 C21          5.8760     2.9750     1.1830 cc         1 504       0.541300
     22 N22          7.1250     3.3160     1.1730 nc         1 504      -0.741000
     23 C23          7.3920     4.6160     1.1720 cc         1 504       0.497100
     24 C24          6.2990     5.4030     1.1800 cd         1 504      -0.261400
     25 S25          4.8780     4.3620     1.1830 ss         1 504      -0.071300
     26 C26          8.7750     5.1550     1.1630 cc         1 504      -0.184000
     27 C27          9.1340     6.4610     1.1620 cd         1 504      -0.079100
     28 N28         10.4990     6.5640     1.1520 na         1 504      -0.277100
     29 C30         11.0700     5.3140     1.1470 ca         1 504       0.463800
     30 C31         10.0210     4.3760     1.1600 ca         1 504      -0.196100
     31 C32         10.3170     3.0130     1.1590 ca         1 504      -0.030000
     32 C33         11.6480     2.6370     1.1440 ca         1 504      -0.294300
     33 C34         12.6310     3.6130     1.1320 ca         1 504       0.449200
     34 N35         12.3290     4.8940     1.1430 nb         1 504      -0.719000
     35 H1          -0.5420     0.0000    -0.9380 ha         1 504       0.132000
     36 H2           1.9240    -0.0010    -0.9390 ha         1 504       0.130000
     37 H3           1.9340     0.0010     3.3310 ha         1 504       0.143000
     38 H4          -1.7740     0.0020     1.1960 ha         1 504       0.136000
     39 H5          -2.4360     0.8880     2.9730 h1         1 504       0.035700
     40 H6          -2.4370    -0.8810     2.9740 h1         1 504       0.035700
     41 H7          -2.3510    -0.8790     5.4460 hc         1 504       0.057200
     42 H8          -2.3500     0.8900     5.4450 hc         1 504       0.057200
     43 H9          -4.5470     0.8900     4.3100 hc         1 504       0.044200
     44 H10         -4.5480    -0.8790     4.3110 hc         1 504       0.044200
     45 H11         -4.3930     0.8410     6.8150 hc         1 504       0.050700
     46 H12         -6.5810     1.0800     5.7220 hc         1 504       0.049950
     47 H13         -6.7210    -0.6820     5.5890 hc         1 504       0.049950
     48 H14         -7.9810     0.1470     7.5410 h1         1 504       0.030950
     49 H15         -6.5070     0.8950     8.1800 h1         1 504       0.030950
     50 H16         -6.9490    -1.2580     9.1300 hn         1 504       0.352800
     51 H18         -4.8300    -2.2560     8.8420 h1         1 504       0.030950
     52 H19         -4.6880    -0.4920     8.9300 h1         1 504       0.030950
     53 H20         -4.8080    -2.1400     6.3790 hc         1 504       0.049950
     54 H21         -3.3570    -1.3760     7.0530 hc         1 504       0.049950
     55 H22          3.9480    -0.5120     2.0750 hc         1 504       0.073700
     56 H23          3.9420    -0.5120     0.3060 hc         1 504       0.073700
     57 H24          6.0620     0.9040     1.1860 hn         1 504       0.341500
     58 H25          6.2950     6.4870     1.1800 h4         1 504       0.175000
     59 H26          8.4450     7.2970     1.1680 h4         1 504       0.172000
     60 H29         11.0080     7.4260     1.1500 hn         1 504       0.306700
     61 H27          9.5270     2.2720     1.1680 ha         1 504       0.155000
     62 H28         11.9190     1.5880     1.1350 ha         1 504       0.136000
     63 H30         13.6730     3.3150     1.1210 h4         1 504       0.021100
@<TRIPOS>BOND
     1    33    32 ar  
     2    33    34 ar  
     3    32    31 ar  
     4    34    29 ar  
     5    31    30 ar  
     6    29    30 ar  
     7    29    28 1   
     8    30    26 1   
     9    28    27 1   
    10    26    27 2   
    11    26    23 1   
    12    22    23 1   
    13    22    21 2   
    14    20    21 1   
    15    20    18 1   
    16    17     3 1   
    17    17    18 1   
    18    23    24 2   
    19     2     3 ar  
    20     2     1 ar  
    21    21    25 1   
    22     3     4 ar  
    23    18    19 2   
    24     1     6 ar  
    25     4     5 ar  
    26    24    25 1   
    27     6     5 ar  
    28     5     7 1   
    29     7     8 1   
    30     9     8 1   
    31     9    10 1   
    32    16    15 1   
    33    16    11 1   
    34    15    14 1   
    35    10    11 1   
    36    11    12 1   
    37    14    13 1   
    38    12    13 1   
    39     1    35 1   
    40     2    36 1   
    41     4    37 1   
    42     6    38 1   
    43     8    39 1   
    44     8    40 1   
    45     9    41 1   
    46     9    42 1   
    47    10    43 1   
    48    10    44 1   
    49    11    45 1   
    50    12    46 1   
    51    12    47 1   
    52    13    48 1   
    53    13    49 1   
    54    14    50 1   
    55    15    51 1   
    56    15    52 1   
    57    16    53 1   
    58    16    54 1   
    59    17    55 1   
    60    17    56 1   
    61    20    57 1   
    62    24    58 1   
    63    27    59 1   
    64    28    60 1   
    65    31    61 1   
    66    32    62 1   
    67    33    63 1   
@<TRIPOS>SUBSTRUCTURE
     1 504         1 TEMP              0 ****  ****    0 ROOT
