@<TRIPOS>MOLECULE
molecule
   31    31     1     0     0
SMALL
bcc


@<TRIPOS>ATOM
      1 C1           0.0000     0.0000     0.0000 c3         1 505      -0.123100
      2 C2           1.5220     0.0000     0.0000 c3         1 505       0.123500
      3 N3           1.9510     0.0000     1.4390 nz         1 505      -0.821600
      4 C4           2.0810    -1.2170    -0.7340 c3         1 505       0.114400
      5 O5           1.5320    -2.4250    -0.1350 os         1 505      -0.377900
      6 C6           1.5350    -3.5730    -0.8890 ca         1 505       0.058100
      7 C7           0.3460    -3.9970    -1.5150 ca         1 505      -0.079300
      8 C8          -0.9250    -3.2000    -1.3760 c3         1 505      -0.044800
      9 C9           0.3660    -5.1580    -2.2730 ca         1 505      -0.115500
     10 C10          1.5260    -5.8960    -2.4020 ca         1 505      -0.097000
     11 C11          2.6920    -5.4850    -1.7850 ca         1 505      -0.115500
     12 C12          2.7190    -4.3240    -1.0250 ca         1 505      -0.079300
     13 C13          3.9960    -3.8800    -0.3580 c3         1 505      -0.044800
     14 H1C1        -0.3610     0.9420     0.3940 hc         1 505       0.079700
     15 H1C2        -0.3610    -0.8120     0.6190 hc         1 505       0.079700
     16 H1C3        -0.3610    -0.1300    -1.0130 hc         1 505       0.079700
     17 H2           1.8800     0.9030    -0.4800 hx         1 505       0.114700
     18 H3N1         1.6800     0.8620     1.8680 hn         1 505       0.456467
     19 H3N2         1.5140    -0.7630     1.9180 hn         1 505       0.456467
     20 H4C1         1.8000    -1.1710    -1.7800 h1         1 505       0.076700
     21 H4C2         3.1610    -1.2280    -0.6490 h1         1 505       0.076700
     22 H8C1        -1.7640    -3.7950    -1.7150 hc         1 505       0.046200
     23 H8C2        -1.0690    -2.9300    -0.3370 hc         1 505       0.046200
     24 H8C3        -0.8540    -2.3010    -1.9760 hc         1 505       0.046200
     25 H9          -0.5380    -5.4900    -2.7690 ha         1 505       0.148500
     26 H10          1.5220    -6.8040    -2.9920 ha         1 505       0.150000
     27 H11          3.5950    -6.0740    -1.8980 ha         1 505       0.148500
     28 H131         4.6830    -4.7160    -0.3010 hc         1 505       0.046200
     29 H132         3.7770    -3.5240     0.6410 hc         1 505       0.046200
     30 H133         4.4460    -3.0820    -0.9350 hc         1 505       0.046200
     31 H33          2.9480    -0.0780     1.4900 hn         1 505       0.456467
@<TRIPOS>BOND
     1     1     2 1
     2     2     3 1
     3     2     4 1
     4     4     5 1
     5     5     6 1
     6     6     7 ar
     7     6    12 ar
     8     7     8 1
     9     7     9 ar
    10     9    10 ar
    11    10    11 ar
    12    11    12 ar
    13    12    13 1
    14     1    14 1
    15     1    15 1
    16     1    16 1
    17     2    17 1
    18     3    18 1
    19     3    19 1
    20     4    20 1
    21     4    21 1
    22     8    22 1
    23     8    23 1
    24     8    24 1
    25     9    25 1
    26    10    26 1
    27    11    27 1
    28    13    28 1
    29    13    29 1
    30    13    30 1
    31    31     3 1
@<TRIPOS>SUBSTRUCTURE
     1 505         1 TEMP              0 ****  ****    0 ROOT
