@<TRIPOS>MOLECULE
506
   45    48     1     0     0
SMALL
bcc


@<TRIPOS>ATOM
      1 OAC          0.0000     0.0000     0.0000 o          1 506      -0.422000
      2 CBC          1.2150     0.0000     0.0000 c2         1 506       0.170000
      3 NAS          1.8780     0.0000     1.1710 ns         1 506       0.072000
      4 CBB          3.2270     0.0000     1.1880 c2         1 506       0.277000
      5 OAB          3.8280    -0.0000     2.2470 o          1 506      -0.363000
      6 CAK          3.9370     0.0010    -0.0370 c2         1 506      -0.268000
      7 CAL          3.2470     0.0010    -1.1970 c2         1 506      -0.092000
      8 NBD          1.8790    -0.0040    -1.1710 n          1 506       0.077000
      9 CAR          1.1290    -0.0100    -2.4290 c3         1 506      -0.234000
     10 CAQ          0.8670     1.4310    -2.8740 DU         1 506      -0.081000
     11 OAT          2.1100     2.0680    -3.1760 os         1 506      -0.170000
     12 CBA          2.0550     3.3620    -3.5900 ca         1 506       0.056000
     13 CAO          0.8330     4.0050    -3.6960 ca         1 506      -0.194000
     14 CAV          0.7790     5.3250    -4.1120 ca         1 506       0.131000
     15 FAD         -0.4140     5.9520    -4.2150 f          1 506      -0.088000
     16 CAI          1.9450     6.0030    -4.4220 ca         1 506      -0.147000
     17 CAJ          3.1680     5.3660    -4.3170 ca         1 506      -0.173000
     18 CAZ          3.2270     4.0460    -3.9020 ca         1 506       0.075000
     19 OAU          4.4300     3.4190    -3.7940 os         1 506      -0.121000
     20 CAY          5.5490     4.1300    -4.0910 ca         1 506       0.095000
     21 CAP          6.1980     4.8450    -3.0990 ca         1 506      -0.127000
     22 CAN          6.0420     4.1370    -5.3890 ca         1 506      -0.143000
     23 CAW          7.1810     4.8590    -5.6990 ca         1 506       0.109000
     24 FAE          7.6550     4.8590    -6.9650 f          1 506      -0.086000
     25 CAM          7.8360     5.5800    -4.7200 ca         1 506      -0.135000
     26 CAX          7.3490     5.5760    -3.4080 ca         1 506       0.001000
     27 CAH          8.0450     6.3380    -2.3590 c2         1 506      -0.125000
     28 CAG          9.1540     7.0410    -2.6610 c2         1 506      -0.216000
     29 CAF          9.8310     7.7830    -1.6390 c1         1 506       0.087000
     30 NAA         10.3770     8.3550    -0.8240 n1         1 506      -0.026000
     31 H1           1.1630     0.4000     1.7460 hn         1 506       0.129000
     32 H2           4.9630     0.3280    -0.1530 ha         1 506       0.148000
     33 H3           3.7950    -0.1970    -2.1100 h4         1 506       0.146000
     34 H4           1.9060     0.4380    -3.0370 h1         1 506       0.141000
     35 H5           0.5360     0.8920    -2.3340 DU         1 506       0.243000
     36 H6           0.9680     1.9680    -1.9390 ha         1 506       0.092500
     37 H7          -0.2000     1.2920    -2.7530 ha         1 506       0.092500
     38 H8           0.1040     3.2270    -3.5030 ha         1 506       0.136000
     39 H9           2.2480     6.8820    -4.9780 ha         1 506       0.141000
     40 H10          3.9400     6.1250    -4.3390 ha         1 506       0.137000
     41 H11          5.6930     5.3750    -2.3010 ha         1 506       0.130000
     42 H12          5.5370     3.6770    -6.2300 ha         1 506       0.136000
     43 H13          8.7590     6.1380    -4.6210 ha         1 506       0.170000
     44 H14          8.6910     6.0630    -1.5340 ha         1 506       0.100000
     45 H15          9.8820     7.3600    -1.9250 ha         1 506       0.118000
@<TRIPOS>BOND
     1     1     2 1   
     2     2     3 1   
     3     2     8 1   
     4     3     4 1   
     5     3    31 1   
     6     4     5 1   
     7     4     6 1   
     8     6     7 1   
     9     6    32 1   
    10     7     8 1   
    11     7    33 1   
    12     8     9 1   
    13     9    10 1   
    14     9    34 1   
    15     9    35 1   
    16    10    11 1   
    17    10    35 1   
    18    10    36 1   
    19    10    37 1   
    20    11    12 1   
    21    12    13 1   
    22    12    18 1   
    23    13    14 1   
    24    13    38 1   
    25    14    15 1   
    26    14    16 1   
    27    16    17 1   
    28    16    39 1   
    29    17    18 1   
    30    17    40 1   
    31    18    19 1   
    32    19    20 1   
    33    20    21 1   
    34    20    22 1   
    35    21    26 1   
    36    21    41 1   
    37    22    23 1   
    38    22    42 1   
    39    23    24 1   
    40    23    25 1   
    41    25    26 1   
    42    25    43 1   
    43    26    27 1   
    44    27    28 1   
    45    27    44 1   
    46    28    29 1   
    47    28    45 1   
    48    29    30 1   
@<TRIPOS>SUBSTRUCTURE
     1 506         1 TEMP              0 ****  ****    0 ROOT
