@<TRIPOS>MOLECULE
molecule
   45    47     1     0     0
SMALL
bcc


@<TRIPOS>ATOM
      1 OAC          0.0000     0.0000     0.0000 o          1 506      -0.634500
      2 CBC          1.2150     0.0000     0.0000 c          1 506       0.806500
      3 NAS          1.8780     0.0000     1.1710 ns         1 506      -0.559500
      4 CBB          3.2270     0.0000     1.1880 c          1 506       0.699700
      5 OAB          3.8280    -0.0000     2.2470 o          1 506      -0.619500
      6 CAK          3.9370     0.0010    -0.0370 cc         1 506      -0.332200
      7 CAL          3.2470     0.0010    -1.1970 cd         1 506       0.031600
      8 NBD          1.8790    -0.0040    -1.1710 n          1 506      -0.374000
      9 CAR          1.1290    -0.0100    -2.4290 c3         1 506       0.106000
     10 CAQ          0.8670     1.4310    -2.8740 c3         1 506      -0.213600
     11 OAT          2.1100     2.0680    -3.1760 os         1 506      -0.312900
     12 CBA          2.0550     3.3620    -3.5900 ca         1 506       0.088100
     13 CAO          0.8330     4.0050    -3.6960 ca         1 506      -0.170000
     14 CAV          0.7790     5.3250    -4.1120 ca         1 506       0.130900
     15 FAD         -0.4140     5.9520    -4.2150 f          1 506      -0.126900
     16 CAI          1.9450     6.0030    -4.4220 ca         1 506      -0.136000
     17 CAJ          3.1680     5.3660    -4.3170 ca         1 506      -0.163000
     18 CAZ          3.2270     4.0460    -3.9020 ca         1 506       0.117100
     19 OAU          4.4300     3.4190    -3.7940 os         1 506      -0.240200
     20 CAY          5.5490     4.1300    -4.0910 ca         1 506       0.114100
     21 CAP          6.1980     4.8450    -3.0990 ca         1 506      -0.122000
     22 CAN          6.0420     4.1370    -5.3890 ca         1 506      -0.171000
     23 CAW          7.1810     4.8590    -5.6990 ca         1 506       0.147900
     24 FAE          7.6550     4.8590    -6.9650 f          1 506      -0.128900
     25 CAM          7.8360     5.5800    -4.7200 ca         1 506      -0.163000
     26 CAX          7.3490     5.5760    -3.4080 ca         1 506      -0.033800
     27 CAH          8.0450     6.3380    -2.3590 ce         1 506      -0.097200
     28 CAG          9.1540     7.0410    -2.6610 cf         1 506      -0.040700
     29 CAF          9.8310     7.7830    -1.6390 ch         1 506       0.175500
     30 NAA         10.3530     8.3850    -0.8300 n1         1 506      -0.333800
     31 H1           1.4000     0.2290     2.0200 hn         1 506       0.361500
     32 H2           5.0200     0.0140    -0.0370 ha         1 506       0.177000
     33 H3           3.7750     0.0540    -2.1410 h4         1 506       0.168000
     34 H4           0.3510    -0.7620    -2.3830 h1         1 506       0.075200
     35 H5           1.8000    -0.2350    -3.2490 h1         1 506       0.075200
     36 H6           0.9530     1.4970    -3.9520 h1         1 506       0.191700
     37 H7           1.5940     2.0880    -2.4130 h1         1 506       0.191700
     38 H8          -0.0810     3.4740    -3.4550 ha         1 506       0.196000
     39 H9           1.9010     7.0360    -4.7470 ha         1 506       0.157000
     40 H10          4.0790     5.8990    -4.5600 ha         1 506       0.161000
     41 H11          5.8520     4.7850    -2.0740 ha         1 506       0.162000
     42 H12          5.5430     3.5620    -6.1600 ha         1 506       0.164000
     43 H13          8.7270     6.1440    -4.9670 ha         1 506       0.153000
     44 H14          8.6280     5.8170    -1.6080 ha         1 506       0.176000
     45 H15          9.5330     7.0460    -3.6760 ha         1 506       0.144000
@<TRIPOS>BOND
     1    15    14 1
     2    14    16 ar
     3    14    13 ar
     4    16    17 ar
     5    13    12 ar
     6     1     2 2
     7    17    18 ar
     8    12    18 ar
     9    12    11 1
    10     3     2 1
    11     3     4 1
    12     2     8 1
    13    18    19 1
    14    11    10 1
    15     5     4 2
    16     4     6 1
    17     8     9 1
    18     8     7 1
    19    19    20 1
    20    10     9 1
    21     6     7 2
    22    22    20 ar
    23    22    23 ar
    24    20    21 ar
    25    24    23 1
    26    23    25 ar
    27    21    26 ar
    28    25    26 ar
    29    26    27 1
    30    27    28 2
    31    28    29 1
    32    29    30 3
    33     3    31 1
    34     6    32 1
    35     7    33 1
    36     9    34 1
    37     9    35 1
    38    10    36 1
    39    10    37 1
    40    13    38 1
    41    16    39 1
    42    17    40 1
    43    21    41 1
    44    22    42 1
    45    25    43 1
    46    27    44 1
    47    28    45 1
@<TRIPOS>SUBSTRUCTURE
     1 506         1 TEMP              0 ****  ****    0 ROOT
