@<TRIPOS>MOLECULE
507
   45    48     1     0     0
SMALL
bcc


@<TRIPOS>ATOM
      1 CAA          0.0000     0.0000     0.0000 c3         1 507      -0.092100
      2 OAB          2.1130    -0.0010    -1.0510 o          1 507      -0.561100
      3 CAC          2.2350    -0.0000     3.6830 ca         1 507      -0.112000
      4 CAD          1.5460     0.0000     2.4880 ca         1 507      -0.073000
      5 CAE          3.6160    -0.0010     3.6920 ca         1 507      -0.092000
      6 CAF          8.6650     0.0030     5.4260 cc         1 507      -0.322300
      7 CAG          8.9580     0.0020     4.0980 cd         1 507       0.077000
      8 CAH          6.6360    -0.0000     1.4020 cc         1 507       0.030600
      9 CAI          3.6390    -0.0010     1.2770 ca         1 507      -0.033000
     10 CAJ          4.1110     0.5400     9.5630 c3         1 507       0.220900
     11 CAK          3.6880    -1.4300     8.2640 c3         1 507       0.220900
     12 CAL          5.5570     0.6160     9.0680 c3         1 507      -0.083400
     13 CAM          5.1160    -1.4330     7.7160 c3         1 507      -0.083400
     14 NAN          7.8940     0.0000     1.8320 nc         1 507      -0.204600
     15 NAO          6.3430     0.0030     4.9800 nd         1 507      -0.753800
     16 OAQ          3.6760    -0.8210     9.5570 os         1 507      -0.407600
     17 CAR          1.5070     0.0000     0.0000 c          1 507       0.625700
     18 CAS          2.2430     0.0010     1.2740 ca         1 507      -0.185600
     19 CAT          4.3260    -0.0010     2.4890 ca         1 507      -0.004800
     20 CAU          7.3230     0.0030     5.8520 cc         1 507       0.579200
     21 CAV          5.8040     0.0000     2.5010 cd         1 507      -0.287300
     22 CAW          7.9080     0.0010     3.1610 cd         1 507      -0.334300
     23 CAX          5.6400     0.0050     7.6660 c3         1 507       0.133500
     24 NAY          6.6130     0.0020     3.6070 na         1 507       0.752200
     25 HAA         -0.3610     0.8840     0.5110 hc         1 507       0.026033
     26 HAAA        -0.3610    -0.8850     0.5110 hc         1 507       0.026033
     27 HAAB        -0.3610     0.0000    -1.0210 hc         1 507       0.026033
     28 HAC          1.6900    -0.0000     4.6200 ha         1 507       0.103000
     29 HAD          0.4620     0.0010     2.4890 ha         1 507       0.107000
     30 HAE          4.1500    -0.0010     4.6350 ha         1 507       0.136000
     31 HAF          9.4650     0.0030     6.1570 ha         1 507       0.126000
     32 HAG          9.9890     0.0020     3.7650 ha         1 507       0.122000
     33 HAH          6.3200    -0.0010     0.3660 h4         1 507       0.151000
     34 HAI          4.1860    -0.0010     0.3410 ha         1 507       0.130000
     35 HAJA         4.0550     0.9310    10.5720 h1         1 507       0.010700
     36 HAK          3.0470    -0.8680     7.5950 h1         1 507       0.010700
     37 HAKA         3.3300    -2.4500     8.3430 h1         1 507       0.010700
     38 HAL          5.8720     1.6520     9.0300 hc         1 507       0.030450
     39 HALA         6.1990     0.0620     9.7420 hc         1 507       0.030450
     40 HAM          5.7500    -2.0260     8.3650 hc         1 507       0.030450
     41 HAMA         5.1190    -1.8530     6.7170 hc         1 507       0.030450
     42 HAX          5.0320     0.5860     6.9830 h1         1 507       0.057700
     43 NAP          7.0340     0.0040     7.2140 nu         1 507      -0.482900
     44 HAJ          3.4750     1.1240     8.9090 h1         1 507       0.010700
     45 HNAP         7.7770     0.0380     7.8840 hn         1 507       0.299800
@<TRIPOS>BOND
     1     1    17 1   
     2     1    25 1   
     3     1    26 1   
     4     1    27 1   
     5     2    17 2   
     6     3     4 ar  
     7     3     5 ar  
     8     3    28 1   
     9     4    18 ar  
    10     4    29 1   
    11     5    19 ar  
    12     5    30 1   
    13     6     7 2   
    14     6    20 1   
    15     6    31 1   
    16     7    22 1   
    17     7    32 1   
    18     8    14 1   
    19     8    21 2   
    20     8    33 1   
    21     9    18 ar  
    22     9    19 ar  
    23     9    34 1   
    24    10    12 1   
    25    10    16 1   
    26    10    35 1   
    27    10    44 1   
    28    11    13 1   
    29    11    16 1   
    30    11    36 1   
    31    11    37 1   
    32    12    23 1   
    33    12    38 1   
    34    12    39 1   
    35    13    23 1   
    36    13    40 1   
    37    13    41 1   
    38    14    22 2   
    39    15    20 2   
    40    15    24 1   
    41    17    18 1   
    42    19    21 1   
    43    20    43 1   
    44    21    24 1   
    45    22    24 1   
    46    23    42 1   
    47    23    43 1   
    48    43    45 1   
@<TRIPOS>SUBSTRUCTURE
     1 507         1 TEMP              0 ****  ****    0 ROOT
