@<TRIPOS>MOLECULE
molecule
   45    48     1     0     0
SMALL
bcc


@<TRIPOS>ATOM
      1 CAA          0.0000     0.0000     0.0000 c3         1 507      -0.191100
      2 OAB          2.1130    -0.0010    -1.0510 o          1 507      -0.529100
      3 CAC          2.2350    -0.0000     3.6830 ca         1 507      -0.145000
      4 CAD          1.5460     0.0000     2.4880 ca         1 507      -0.093000
      5 CAE          3.6160    -0.0010     3.6920 ca         1 507      -0.092000
      6 CAF          8.6650     0.0030     5.4260 cc         1 507      -0.304300
      7 CAG          8.9580     0.0020     4.0980 cd         1 507       0.008000
      8 CAH          6.6360    -0.0000     1.4020 cc         1 507       0.026600
      9 CAI          3.6390    -0.0010     1.2770 ca         1 507      -0.058000
     10 CAJ          4.1110     0.5400     9.5630 c3         1 507       0.140900
     11 CAK          3.6880    -1.4300     8.2640 c3         1 507       0.140900
     12 CAL          5.5570     0.6160     9.0680 c3         1 507      -0.134900
     13 CAM          5.1160    -1.4330     7.7160 c3         1 507      -0.134900
     14 NAN          7.8940     0.0000     1.8320 nc         1 507      -0.282600
     15 NAO          6.3430     0.0030     4.9800 nd         1 507      -0.598800
     16 OAQ          3.6760    -0.8210     9.5570 os         1 507      -0.420600
     17 CAR          1.5070     0.0000     0.0000 c          1 507       0.576700
     18 CAS          2.2430     0.0010     1.2740 ca         1 507      -0.178600
     19 CAT          4.3260    -0.0010     2.4890 ca         1 507      -0.026800
     20 CAU          7.3230     0.0030     5.8520 cc         1 507       0.683200
     21 CAV          5.8040     0.0000     2.5010 cd         1 507      -0.081300
     22 CAW          7.9080     0.0010     3.1610 cd         1 507      -0.109300
     23 CAX          5.6400     0.0050     7.6660 c3         1 507       0.242500
     24 NAY          6.6130     0.0020     3.6070 na         1 507       0.225200
     25 HAA         -0.3610     0.8840     0.5110 hc         1 507       0.061367
     26 HAAA        -0.3610    -0.8850     0.5110 hc         1 507       0.061367
     27 HAAB        -0.3610     0.0000    -1.0210 hc         1 507       0.061367
     28 HAC          1.6900    -0.0000     4.6200 ha         1 507       0.132000
     29 HAD          0.4620     0.0010     2.4890 ha         1 507       0.132000
     30 HAE          4.1500    -0.0010     4.6350 ha         1 507       0.160000
     31 HAF          9.4650     0.0030     6.1570 ha         1 507       0.147000
     32 HAG          9.9890     0.0020     3.7650 ha         1 507       0.165000
     33 HAH          6.3200    -0.0010     0.3660 h4         1 507       0.193000
     34 HAI          4.1860    -0.0010     0.3410 ha         1 507       0.156000
     35 HAJA         4.0550     0.9310    10.5720 h1         1 507       0.050450
     36 HAK          3.0470    -0.8680     7.5950 h1         1 507       0.050450
     37 HAKA         3.3300    -2.4500     8.3430 h1         1 507       0.050450
     38 HAL          5.8720     1.6520     9.0300 hc         1 507       0.059450
     39 HALA         6.1990     0.0620     9.7420 hc         1 507       0.059450
     40 HAM          5.7500    -2.0260     8.3650 hc         1 507       0.059450
     41 HAMA         5.1190    -1.8530     6.7170 hc         1 507       0.059450
     42 HAX          5.0320     0.5860     6.9830 h1         1 507       0.075700
     43 NAP          7.0340     0.0040     7.2140 nu         1 507      -0.905900
     44 HAJ          3.4750     1.1240     8.9090 h1         1 507       0.050450
     45 HNAP         7.7770     0.0380     7.8840 hn         1 507       0.454800
@<TRIPOS>BOND
     1     1    17 1   
     2     2    17 2   
     3     3     4 ar  
     4     3     5 ar  
     5     4    18 ar  
     6     5    19 ar  
     7     6     7 2   
     8     6    20 1   
     9     7    22 1   
    10     8    14 1   
    11     8    21 2   
    12     9    18 ar  
    13     9    19 ar  
    14    10    12 1   
    15    10    16 1   
    16    11    13 1   
    17    11    16 1   
    18    12    23 1   
    19    13    23 1   
    20    14    22 2   
    21    15    20 2   
    22    15    24 1   
    23    43    20 1   
    24    43    23 1   
    25    17    18 1   
    26    19    21 1   
    27    21    24 1   
    28    22    24 1   
    29     1    25 1   
    30     1    26 1   
    31     1    27 1   
    32     3    28 1   
    33     4    29 1   
    34     5    30 1   
    35     6    31 1   
    36     7    32 1   
    37     8    33 1   
    38     9    34 1   
    39    10    44 1   
    40    10    35 1   
    41    11    36 1   
    42    11    37 1   
    43    12    38 1   
    44    12    39 1   
    45    13    40 1   
    46    13    41 1   
    47    43    45 1   
    48    23    42 1   
@<TRIPOS>SUBSTRUCTURE
     1 507         1 TEMP              0 ****  ****    0 ROOT
