@<TRIPOS>MOLECULE
molecule
   68    73     1     0     0
SMALL
bcc


@<TRIPOS>ATOM
      1 C            0.0000     0.0000     0.0000 c3         1 508      -0.000700
      2 C1           1.5400     0.0000     0.0000 c3         1 508       0.146800
      3 N            1.9140     0.0000     1.4390 n7         1 508      -0.773200
      4 C2           0.9260    -0.9110     2.0720 c3         1 508       0.153800
      5 C3          -0.4080    -0.5970     1.3590 c3         1 508      -0.150700
      6 C4          -1.2030     0.4060     2.1540 c          1 508       0.669100
      7 O           -0.6410     1.1420     2.9380 o          1 508      -0.572100
      8 N5          -2.5390     0.4850     1.9950 n          1 508      -0.493800
      9 C6          -3.2470    -0.4660     1.1280 c3         1 508       0.097000
     10 C7          -4.3800    -1.1150     1.9270 c3         1 508      -0.093400
     11 C8          -5.2710    -0.0220     2.5210 c3         1 508      -0.025400
     12 C9          -4.4490     0.8510     3.4700 c3         1 508      -0.085400
     13 C10         -3.3160     1.5190     2.6920 c3         1 508       0.169000
     14 C11         -6.4070    -0.6570     3.2800 ca         1 508      -0.080300
     15 C12         -7.7150    -0.4080     2.9070 ca         1 508      -0.124000
     16 C13         -8.7560    -0.9900     3.6040 ca         1 508      -0.125500
     17 C14         -8.4910    -1.8220     4.6750 ca         1 508      -0.130000
     18 C15         -7.1840    -2.0720     5.0490 ca         1 508      -0.125500
     19 C16         -6.1420    -1.4940     4.3480 ca         1 508      -0.124000
     20 C17         -0.5210     1.4260    -0.1210 c3         1 508      -0.084400
     21 C18         -0.2670     1.9150    -1.5530 c3         1 508      -0.084400
     22 C19         -1.1820     1.1390    -2.4980 c3         1 508      -0.040100
     23 C20         -1.0490    -0.3430    -2.2700 ca         1 508      -0.068300
     24 C21         -0.5110    -0.8690    -1.1150 ca         1 508      -0.074300
     25 C22         -1.4920    -1.1970    -3.2710 ca         1 508      -0.129000
     26 C23         -1.4030    -2.5650    -3.1180 ca         1 508      -0.126000
     27 C24         -0.8680    -3.0910    -1.9580 ca         1 508      -0.132000
     28 C25         -0.4240    -2.2460    -0.9610 ca         1 508      -0.135000
     29 C26         -2.4220     2.2690     3.6450 ca         1 508      -0.067300
     30 C27         -2.1770     3.6150     3.4500 ca         1 508      -0.092000
     31 C28         -1.3570     4.3030     4.3240 ca         1 508      -0.131000
     32 C29         -0.7810     3.6450     5.3940 ca         1 508      -0.121000
     33 C30         -1.0260     2.2980     5.5910 ca         1 508      -0.131000
     34 C31         -1.8510     1.6110     4.7190 ca         1 508      -0.092000
     35 H1           1.9170    -0.8920    -0.4870 h1         1 508       0.047200
     36 H2           1.9170     0.8920    -0.4870 h1         1 508       0.047200
     37 H3           2.8340    -0.3800     1.5450 hn         1 508       0.345800
     38 H5           1.2070    -1.9440     1.9070 h1         1 508       0.048700
     39 H6           0.8450    -0.7000     3.1320 h1         1 508       0.048700
     40 H7          -0.9780    -1.5070     1.2130 hc         1 508       0.069700
     41 H8          -2.5580    -1.2300     0.7900 h1         1 508       0.055200
     42 H9          -3.6600     0.0600     0.2750 h1         1 508       0.055200
     43 H10         -4.9700    -1.7440     1.2700 hc         1 508       0.053200
     44 H11         -3.9610    -1.7130     2.7270 hc         1 508       0.053200
     45 H12         -5.6660     0.5930     1.7200 hc         1 508       0.056700
     46 H13         -4.0300     0.2330     4.2560 hc         1 508       0.059200
     47 H14         -5.0860     1.6120     3.9030 hc         1 508       0.059200
     48 H15         -3.7350     2.2050     1.9660 h1         1 508       0.053700
     49 H16         -7.9230     0.2450     2.0670 ha         1 508       0.130000
     50 H17         -9.7810    -0.7940     3.3110 ha         1 508       0.130000
     51 H18         -9.3080    -2.2770     5.2220 ha         1 508       0.129000
     52 H19         -6.9760    -2.7270     5.8870 ha         1 508       0.130000
     53 H20         -5.1180    -1.6900     4.6410 ha         1 508       0.130000
     54 H21         -1.5840     1.4440     0.0860 hc         1 508       0.068200
     55 H22          0.0030     2.0650     0.5790 hc         1 508       0.068200
     56 H23          0.7600     1.6910    -1.8130 hc         1 508       0.051700
     57 H24         -0.5330     2.9640    -1.6070 hc         1 508       0.051700
     58 H25         -2.2040     1.4200    -2.2760 hc         1 508       0.054200
     59 H26         -0.8680     1.3500    -3.5130 hc         1 508       0.054200
     60 H27         -1.9120    -0.7850    -4.1810 ha         1 508       0.131000
     61 H28         -1.7520    -3.2240    -3.9040 ha         1 508       0.130000
     62 H29         -0.7940    -4.1650    -1.8320 ha         1 508       0.130000
     63 H30         -0.0050    -2.6600    -0.0520 ha         1 508       0.130000
     64 H31         -2.6280     4.1310     2.6110 ha         1 508       0.120000
     65 H32         -1.1650     5.3580     4.1710 ha         1 508       0.123000
     66 H33         -0.1370     4.1830     6.0780 ha         1 508       0.122000
     67 H34         -0.5760     1.7830     6.4310 ha         1 508       0.123000
     68 H35         -2.0430     0.5560     4.8730 ha         1 508       0.120000
@<TRIPOS>BOND
     1    17    18 ar  
     2    17    16 ar  
     3    18    19 ar  
     4    16    15 ar  
     5    19    14 ar  
     6    15    14 ar  
     7    14    11 1   
     8    12    11 1   
     9    12    13 1   
    10    11    10 1   
    11    34    33 ar  
    12    34    29 ar  
    13    33    32 ar  
    14    13    29 1   
    15    13     8 1   
    16    29    30 ar  
    17    10     9 1   
    18    22    23 1   
    19    22    21 1   
    20    25    23 ar  
    21    25    26 ar  
    22    32    31 ar  
    23    23    24 ar  
    24     8     9 1   
    25     8     6 1   
    26    26    27 ar  
    27    21    20 1   
    28    30    31 ar  
    29     7     6 2   
    30     6     5 1   
    31    20     1 1   
    32    27    28 ar  
    33    24    28 ar  
    34    24     1 1   
    35     1     5 1   
    36     1     2 1   
    37     5     4 1   
    38     4     3 1   
    39     2     3 1   
    40     2    35 1   
    41     2    36 1   
    42     3    37 1   
    43     4    38 1   
    44     4    39 1   
    45     5    40 1   
    46     9    41 1   
    47     9    42 1   
    48    10    43 1   
    49    10    44 1   
    50    11    45 1   
    51    12    46 1   
    52    12    47 1   
    53    13    48 1   
    54    15    49 1   
    55    16    50 1   
    56    17    51 1   
    57    18    52 1   
    58    19    53 1   
    59    20    54 1   
    60    20    55 1   
    61    21    56 1   
    62    21    57 1   
    63    22    58 1   
    64    22    59 1   
    65    25    60 1   
    66    26    61 1   
    67    27    62 1   
    68    28    63 1   
    69    30    64 1   
    70    31    65 1   
    71    32    66 1   
    72    33    67 1   
    73    34    68 1   
@<TRIPOS>SUBSTRUCTURE
     1 508         1 TEMP              0 ****  ****    0 ROOT
