@<TRIPOS>MOLECULE
508
   68    73     1     0     0
SMALL
bcc


@<TRIPOS>ATOM
      1 C            0.0000     0.0000     0.0000 c3         1 508       0.016300
      2 C1           1.5400     0.0000     0.0000 c3         1 508       0.135800
      3 N            1.9140     0.0000     1.4390 n7         1 508      -0.561200
      4 C2           0.9260    -0.9110     2.0720 c3         1 508       0.155800
      5 C3          -0.4080    -0.5970     1.3590 c3         1 508      -0.149700
      6 C4          -1.2030     0.4060     2.1540 c          1 508       0.597100
      7 O           -0.6410     1.1420     2.9380 o          1 508      -0.611100
      8 N5          -2.5390     0.4850     1.9950 n          1 508      -0.159800
      9 C6          -3.2470    -0.4660     1.1280 c3         1 508       0.032000
     10 C7          -4.3800    -1.1150     1.9270 c3         1 508      -0.042400
     11 C8          -5.2710    -0.0220     2.5210 c3         1 508       0.007600
     12 C9          -4.4490     0.8510     3.4700 c3         1 508      -0.047400
     13 C10         -3.3160     1.5190     2.6920 c3         1 508       0.101000
     14 C11         -6.4070    -0.6570     3.2800 ca         1 508      -0.087300
     15 C12         -7.7150    -0.4080     2.9070 ca         1 508      -0.098500
     16 C13         -8.7560    -0.9900     3.6040 ca         1 508      -0.097500
     17 C14         -8.4910    -1.8220     4.6750 ca         1 508      -0.102000
     18 C15         -7.1840    -2.0720     5.0490 ca         1 508      -0.097500
     19 C16         -6.1420    -1.4940     4.3480 ca         1 508      -0.098500
     20 C17         -0.5210     1.4260    -0.1210 c3         1 508      -0.053400
     21 C18         -0.2670     1.9150    -1.5530 c3         1 508      -0.034400
     22 C19         -1.1820     1.1390    -2.4980 c3         1 508       0.026900
     23 C20         -1.0490    -0.3430    -2.2700 ca         1 508      -0.072300
     24 C21         -0.5110    -0.8690    -1.1150 ca         1 508      -0.079300
     25 C22         -1.4920    -1.1970    -3.2710 ca         1 508      -0.104000
     26 C23         -1.4030    -2.5650    -3.1180 ca         1 508      -0.099000
     27 C24         -0.8680    -3.0910    -1.9580 ca         1 508      -0.104000
     28 C25         -0.4240    -2.2460    -0.9610 ca         1 508      -0.116000
     29 C26         -2.4220     2.2690     3.6450 ca         1 508      -0.076300
     30 C27         -2.1770     3.6150     3.4500 ca         1 508      -0.068500
     31 C28         -1.3570     4.3030     4.3240 ca         1 508      -0.102500
     32 C29         -0.7810     3.6450     5.3940 ca         1 508      -0.095000
     33 C30         -1.0260     2.2980     5.5910 ca         1 508      -0.102500
     34 C31         -1.8510     1.6110     4.7190 ca         1 508      -0.068500
     35 H1           1.9170    -0.8920    -0.4870 h1         1 508       0.021200
     36 H2           1.9170     0.8920    -0.4870 h1         1 508       0.021200
     37 H3           2.8340    -0.3800     1.5450 hn         1 508       0.249800
     38 H5           1.2070    -1.9440     1.9070 h1         1 508       0.018700
     39 H6           0.8450    -0.7000     3.1320 h1         1 508       0.018700
     40 H7          -0.9780    -1.5070     1.2130 hc         1 508       0.055700
     41 H8          -2.5580    -1.2300     0.7900 h1         1 508       0.033200
     42 H9          -3.6600     0.0600     0.2750 h1         1 508       0.033200
     43 H10         -4.9700    -1.7440     1.2700 hc         1 508       0.027200
     44 H11         -3.9610    -1.7130     2.7270 hc         1 508       0.027200
     45 H12         -5.6660     0.5930     1.7200 hc         1 508       0.032700
     46 H13         -4.0300     0.2330     4.2560 hc         1 508       0.035200
     47 H14         -5.0860     1.6120     3.9030 hc         1 508       0.035200
     48 H15         -3.7350     2.2050     1.9660 h1         1 508       0.027700
     49 H16         -7.9230     0.2450     2.0670 ha         1 508       0.107000
     50 H17         -9.7810    -0.7940     3.3110 ha         1 508       0.103000
     51 H18         -9.3080    -2.2770     5.2220 ha         1 508       0.103000
     52 H19         -6.9760    -2.7270     5.8870 ha         1 508       0.103000
     53 H20         -5.1180    -1.6900     4.6410 ha         1 508       0.107000
     54 H21         -1.5840     1.4440     0.0860 hc         1 508       0.042700
     55 H22          0.0030     2.0650     0.5790 hc         1 508       0.042700
     56 H23          0.7600     1.6910    -1.8130 hc         1 508       0.025700
     57 H24         -0.5330     2.9640    -1.6070 hc         1 508       0.025700
     58 H25         -2.2040     1.4200    -2.2760 hc         1 508       0.024700
     59 H26         -0.8680     1.3500    -3.5130 hc         1 508       0.024700
     60 H27         -1.9120    -0.7850    -4.1810 ha         1 508       0.106000
     61 H28         -1.7520    -3.2240    -3.9040 ha         1 508       0.104000
     62 H29         -0.7940    -4.1650    -1.8320 ha         1 508       0.103000
     63 H30         -0.0050    -2.6600    -0.0520 ha         1 508       0.112000
     64 H31         -2.6280     4.1310     2.6110 ha         1 508       0.097000
     65 H32         -1.1650     5.3580     4.1710 ha         1 508       0.097000
     66 H33         -0.1370     4.1830     6.0780 ha         1 508       0.096000
     67 H34         -0.5760     1.7830     6.4310 ha         1 508       0.097000
     68 H35         -2.0430     0.5560     4.8730 ha         1 508       0.097000
@<TRIPOS>BOND
     1     1     2 1   
     2     1     5 1   
     3     1    20 1   
     4     1    24 1   
     5     2     3 1   
     6     2    35 1   
     7     2    36 1   
     8     3     4 1   
     9     3    37 1   
    10     4     5 1   
    11     4    38 1   
    12     4    39 1   
    13     5     6 1   
    14     5    40 1   
    15     6     7 2   
    16     6     8 1   
    17     8     9 1   
    18     8    13 1   
    19     9    10 1   
    20     9    41 1   
    21     9    42 1   
    22    10    11 1   
    23    10    43 1   
    24    10    44 1   
    25    11    12 1   
    26    11    14 1   
    27    11    45 1   
    28    12    13 1   
    29    12    46 1   
    30    12    47 1   
    31    13    29 1   
    32    13    48 1   
    33    14    15 ar  
    34    14    19 ar  
    35    15    16 ar  
    36    15    49 1   
    37    16    17 ar  
    38    16    50 1   
    39    17    18 ar  
    40    17    51 1   
    41    18    19 ar  
    42    18    52 1   
    43    19    53 1   
    44    20    21 1   
    45    20    54 1   
    46    20    55 1   
    47    21    22 1   
    48    21    56 1   
    49    21    57 1   
    50    22    23 1   
    51    22    58 1   
    52    22    59 1   
    53    23    24 ar  
    54    23    25 ar  
    55    24    28 ar  
    56    25    26 ar  
    57    25    60 1   
    58    26    27 ar  
    59    26    61 1   
    60    27    28 ar  
    61    27    62 1   
    62    28    63 1   
    63    29    30 ar  
    64    29    34 ar  
    65    30    31 ar  
    66    30    64 1   
    67    31    32 ar  
    68    31    65 1   
    69    32    33 ar  
    70    32    66 1   
    71    33    34 ar  
    72    33    67 1   
    73    34    68 1   
@<TRIPOS>SUBSTRUCTURE
     1 508         1 TEMP              0 ****  ****    0 ROOT
