@<TRIPOS>MOLECULE
509
   27    28     1     0     0
SMALL
bcc


@<TRIPOS>ATOM
      1 C1          0.2850    0.0270   -0.2840 ca        1 509     -0.165000
      2 C2          1.6380    0.2280   -0.0150 ca        1 509     -0.141000
      3 C3          2.1040    0.2100    1.2960 ca        1 509     -0.126500
      4 C4          1.2210   -0.0110    2.3680 ca        1 509      0.057000
      5 C5         -0.1400   -0.2180    2.0840 ca        1 509     -0.126500
      6 C6         -0.6000   -0.1960    0.7700 ca        1 509     -0.141000
      7 C7          1.7200   -0.0540    3.7200 cc        1 509     -0.153100
      8 C8          1.2340    0.6270    4.8320 cd        1 509     -0.044900
      9 C9          1.9900    0.3090    6.0260 cd        1 509      0.138100
     10 C10         3.0090   -0.5920    5.7540 cc        1 509     -0.171700
     11 S1          3.0370   -0.9980    4.1310 ss        1 509      0.025200
     12 C11         4.0370   -1.2480    6.6550 c         1 509      0.939200
     13 O1          3.6490   -2.1580    7.4370 o         1 509     -0.818800
     14 O2          5.2440   -0.9030    6.5100 o         1 509     -0.818800
     15 O3          1.6090    0.9170    7.1840 os        1 509     -0.287900
     16 C12         2.4080    0.6490    8.3510 c3        1 509      0.005400
     17 C13         1.8400    1.5400    9.4830 c         1 509      0.917600
     18 O4          2.4240    2.6360    9.7230 o         1 509     -0.851800
     19 O5          0.8590    1.1120   10.1550 o         1 509     -0.851800
     20 BR1        -0.1810    1.8290    4.7720 br        1 509     -0.103100
     21 H1         -0.0820    0.0450   -1.3190 ha        1 509      0.104000
     22 H2          2.3410    0.4050   -0.8420 ha        1 509      0.109500
     23 H3          3.1720    0.3740    1.5080 ha        1 509      0.144000
     24 H5         -0.8400   -0.4010    2.9140 ha        1 509      0.144000
     25 H6         -1.6680   -0.3560    0.5650 ha        1 509      0.109500
     26 H121        3.4750    0.9060    8.1340 h1        1 509      0.054200
     27 H122        2.3220   -0.4380    8.6080 h1        1 509      0.054200
@<TRIPOS>BOND
     1    1    2 ar  
     2    1    6 ar  
     3    1   21 1   
     4    2    3 ar  
     5    2   22 1   
     6    3    4 ar  
     7    3   23 1   
     8    4    5 ar  
     9    4    7 1   
    10    5    6 ar  
    11    5   24 1   
    12    6   25 1   
    13    7    8 2   
    14    7   11 1   
    15    8    9 1   
    16    8   20 1   
    17    9   10 2   
    18    9   15 1   
    19   10   11 1   
    20   10   12 1   
    21   12   13 1   
    22   12   14 1   
    23   15   16 1   
    24   16   17 1   
    25   16   26 1   
    26   16   27 1   
    27   17   18 1   
    28   17   19 1   
@<TRIPOS>SUBSTRUCTURE
     1 509         1 TEMP              0 ****  ****    0 ROOT
