@<TRIPOS>MOLECULE
molecule
   27    28     1     0     0
SMALL
bcc


@<TRIPOS>ATOM
      1 C1           0.0000     0.0000     0.0000 ca         1 509      -0.162000
      2 C2           1.3830     0.0000     0.0000 ca         1 509      -0.139500
      3 C3           2.0770     0.0000     1.1920 ca         1 509      -0.122000
      4 C4           1.3790     0.0010     2.4010 ca         1 509       0.058000
      5 C5          -0.0170    -0.0050     2.3940 ca         1 509      -0.122000
      6 C6          -0.6980     0.0000     1.1950 ca         1 509      -0.139500
      7 C7           2.1150     0.0010     3.6820 cc         1 509      -0.058100
      8 C8           1.8280     0.6890     4.8480 cd         1 509      -0.020900
      9 C9           2.6610     0.5360     5.9280 cd         1 509       0.050100
     10 C10          3.7640    -0.3060     5.8000 cc         1 509       0.061300
     11 S1           3.5990    -0.8890     4.1210 ss         1 509      -0.196800
     12 C11          4.7560    -0.6220     6.7570 c          1 509       0.892200
     13 O1           4.7120    -0.1250     7.8670 o          1 509      -0.807300
     14 O2           5.7540    -1.4740     6.4390 o          1 509      -0.807300
     15 O3           2.4180     1.1930     7.0910 os         1 509      -0.255900
     16 C12          1.5860     0.3410     7.8820 c3         1 509       0.021400
     17 C13          1.2790     1.0160     9.1930 c          1 509       0.907600
     18 O4           1.7270     2.1130     9.4290 o          1 509      -0.855300
     19 O5           0.5080     0.3970    10.1010 o          1 509      -0.855300
     20 Br1          0.3170     1.8230     4.9500 br         1 509      -0.119100
     21 H1          -0.5390     0.0020    -0.9390 ha         1 509       0.104000
     22 H2           1.9230    -0.0000    -0.9390 ha         1 509       0.111000
     23 H3           3.1600     0.0020     1.1900 ha         1 509       0.146500
     24 H5          -0.5640    -0.0050     3.3290 ha         1 509       0.146500
     25 H6          -1.7810    -0.0020     1.1890 ha         1 509       0.111000
     26 H121         0.6620     0.1450     7.3520 h1         1 509       0.024700
     27 H122         2.1000    -0.5940     8.0690 h1         1 509       0.024700
@<TRIPOS>BOND
     1     1     2 ar  
     2     1     6 ar  
     3     1    21 1   
     4     2     3 ar  
     5     2    22 1   
     6     3     4 ar  
     7     3    23 1   
     8     4     5 ar  
     9     4     7 1   
    10     5     6 ar  
    11     5    24 1   
    12     6    25 1   
    13     7     8 2   
    14     7    11 1   
    15     8     9 1   
    16     8    20 1   
    17     9    10 2   
    18     9    15 1   
    19    10    11 1   
    20    10    12 1   
    21    12    13 1   
    22    12    14 1   
    23    15    16 1   
    24    16    17 1   
    25    16    26 1   
    26    16    27 1   
    27    17    18 1   
    28    17    19 1   
@<TRIPOS>SUBSTRUCTURE
     1 509         1 TEMP              0 ****  ****    0 ROOT
