@<TRIPOS>MOLECULE
molecule
   75    81     1     0     0
SMALL
bcc


@<TRIPOS>ATOM
      1 O2           0.0000     0.0000     0.0000 os         1 50B      -0.311900
      2 C2           1.3470     0.0000     0.0000 ca         1 50B       0.099100
      3 C3           1.7710     0.0000     1.3410 ca         1 50B       0.062100
      4 C4           2.2670    -0.0110    -1.0370 ca         1 50B      -0.106000
      5 C5           3.6080     0.0290    -0.6970 ca         1 50B      -0.069300
      6 C6           4.0440     0.0970     0.6280 ca         1 50B      -0.082000
      7 C1          -0.4300    -0.4420     1.2960 c3         1 50B       0.342200
      8 O1           0.6670    -0.0160     2.1160 os         1 50B      -0.318900
      9 C19         11.0090     0.1660    -0.2000 c3         1 50B       0.126700
     10 C18          9.5780    -0.0740     1.6830 ca         1 50B       0.103100
     11 C13          8.2030     0.0410     1.4150 ca         1 50B      -0.077000
     12 C12          7.3580     0.7020     2.3480 ca         1 50B      -0.016000
     13 C15          7.8970     1.1670     3.5540 ca         1 50B      -0.088000
     14 C16          9.2340     1.0360     3.7980 ca         1 50B      -0.140000
     15 C17         10.0790     0.4290     2.8700 ca         1 50B       0.154100
     16 C20         11.8640     0.8560     4.3840 c3         1 50B       0.116700
     17 C11          5.9960     0.8480     2.0160 ca         1 50B      -0.020300
     18 C10          5.5010     0.2220     0.8950 ca         1 50B       0.005700
     19 N1           6.3430    -0.3560     0.0180 na         1 50B       0.076900
     20 C14          7.6310    -0.4690     0.2430 ca         1 50B       0.001700
     21 C7           3.1150     0.0290     1.6730 ca         1 50B      -0.087000
     22 C8           4.6500    -0.0460    -1.7900 c3         1 50B      -0.045100
     23 C9           5.8250    -0.8720    -1.2590 c3         1 50B      -0.003700
     24 C21          5.1450     1.7680     2.8580 c3         1 50B      -0.055100
     25 C22          5.3010     3.2070     2.3590 c3         1 50B      -0.079400
     26 C23          4.4390     4.1390     3.2120 c3         1 50B      -0.070400
     27 C24          4.5940     5.5770     2.7130 c3         1 50B       0.026900
     28 C25          4.0400     5.6880     1.3160 ca         1 50B      -0.083300
     29 C26          4.8120     6.2310     0.3060 ca         1 50B      -0.125000
     30 C27          4.3040     6.3320    -0.9750 ca         1 50B      -0.123000
     31 C28          3.0230     5.8890    -1.2470 ca         1 50B      -0.124500
     32 C29          2.2520     5.3430    -0.2380 ca         1 50B      -0.123000
     33 C30          2.7620     5.2380     1.0420 ca         1 50B      -0.125000
     34 C31          3.8440     6.5110     3.6260 ca         1 50B      -0.083300
     35 C32          4.4810     7.6130     4.1630 ca         1 50B      -0.125000
     36 C33          3.7910     8.4700     5.0020 ca         1 50B      -0.123000
     37 C34          2.4650     8.2230     5.3030 ca         1 50B      -0.124500
     38 C35          1.8280     7.1190     4.7670 ca         1 50B      -0.123000
     39 C36          2.5150     6.2670     3.9240 ca         1 50B      -0.125000
     40 H1           1.9550     0.2500    -2.0410 ha         1 50B       0.171000
     41 H2          -1.3470     0.0540     1.5890 h2         1 50B       0.089700
     42 H3          10.5520     1.1480    -0.1670 h1         1 50B       0.049033
     43 H4          10.8580    -0.2700    -1.1800 h1         1 50B       0.049033
     44 H5          12.0700     0.2540    -0.0040 h1         1 50B       0.049033
     45 H6           7.2560     1.6420     4.2870 ha         1 50B       0.167000
     46 H7           9.6440     1.4090     4.7280 ha         1 50B       0.168000
     47 H8          12.9390     0.7400     4.4540 h1         1 50B       0.057700
     48 H9          11.6060     1.9030     4.4850 h1         1 50B       0.057700
     49 H10         11.3870     0.2880     5.1740 h1         1 50B       0.057700
     50 H11          8.2600    -0.9650    -0.4870 h4         1 50B       0.205000
     51 H12          3.4350    -0.2730     2.6630 ha         1 50B       0.165000
     52 H13          4.2290    -0.5300    -2.6640 hc         1 50B       0.090700
     53 H14          4.9880     0.9510    -2.0430 hc         1 50B       0.090700
     54 H15          6.6230    -0.8550    -1.9910 h1         1 50B       0.093200
     55 H16          5.4970    -1.8940    -1.1150 h1         1 50B       0.093200
     56 H17          5.4620     1.7080     3.8920 hc         1 50B       0.075700
     57 H18          4.1060     1.4700     2.7810 hc         1 50B       0.075700
     58 H19          6.3400     3.5050     2.4360 hc         1 50B       0.052200
     59 H20          4.9830     3.2670     1.3250 hc         1 50B       0.052200
     60 H21          4.7570     4.0800     4.2460 hc         1 50B       0.053200
     61 H22          3.4000     3.8410     3.1360 hc         1 50B       0.053200
     62 H23          5.6440     5.8450     2.7060 hc         1 50B       0.059700
     63 H24          5.8160     6.5790     0.5190 ha         1 50B       0.129000
     64 H25          4.9090     6.7590    -1.7660 ha         1 50B       0.134250
     65 H26          2.6240     5.9690    -2.2510 ha         1 50B       0.135500
     66 H27          1.2490     4.9930    -0.4520 ha         1 50B       0.134250
     67 H28          2.1570     4.8110     1.8330 ha         1 50B       0.129000
     68 H29          5.5200     7.8060     3.9270 ha         1 50B       0.129000
     69 H30          4.2910     9.3340     5.4230 ha         1 50B       0.134250
     70 H31          1.9260     8.8920     5.9630 ha         1 50B       0.135500
     71 H32          0.7880     6.9270     5.0020 ha         1 50B       0.134250
     72 H33          2.0160     5.4020     3.5040 ha         1 50B       0.129000
     73 H34         -0.5360    -1.5200     1.3220 h2         1 50B       0.089700
     74 O3          10.4080    -0.6730     0.7910 os         1 50B      -0.332900
     75 O4          11.4090     0.3240     3.1370 os         1 50B      -0.292900
@<TRIPOS>BOND
     1    38    39 ar
     2    38    37 ar
     3    39    34 ar
     4     9    74 1
     5    22     5 1
     6    22    23 1
     7    37    36 ar
     8    14    13 ar
     9    14    15 ar
    10    75    15 1
    11    75    16 1
    12    13    12 ar
    13    15    10 ar
    14    34    27 1
    15    34    35 ar
    16    24    17 1
    17    24    25 1
    18     5     4 ar
    19     5     6 ar
    20    27    28 1
    21    27    26 1
    22    29    28 ar
    23    29    30 ar
    24    28    33 ar
    25    12    17 ar
    26    12    11 ar
    27    30    31 ar
    28    33    32 ar
    29    10    11 ar
    30    10    74 1
    31     4     2 ar
    32    31    32 ar
    33    17    18 ar
    34    11    20 ar
    35    18    19 1
    36    18     6 1
    37    20    19 2
    38    19    23 1
    39     6    21 ar
    40     2     1 1
    41     2     3 ar
    42     1     7 1
    43    36    35 ar
    44    21     3 ar
    45     3     8 1
    46    25    26 1
    47     8     7 1
    48     4    40 1
    49     7    41 1
    50     9    42 1
    51     9    43 1
    52     9    44 1
    53    13    45 1
    54    14    46 1
    55    16    47 1
    56    16    48 1
    57    16    49 1
    58    20    50 1
    59    21    51 1
    60    22    52 1
    61    22    53 1
    62    23    54 1
    63    23    55 1
    64    24    56 1
    65    24    57 1
    66    25    58 1
    67    25    59 1
    68    26    60 1
    69    26    61 1
    70    27    62 1
    71    29    63 1
    72    30    64 1
    73    31    65 1
    74    32    66 1
    75    33    67 1
    76    35    68 1
    77    36    69 1
    78    37    70 1
    79    38    71 1
    80    39    72 1
    81     7    73 1
@<TRIPOS>SUBSTRUCTURE
     1 50B         1 TEMP              0 ****  ****    0 ROOT
