@<TRIPOS>MOLECULE
molecule
   24    25     1     0     0
SMALL
bcc


@<TRIPOS>ATOM
      1 C10          0.0000     0.0000     0.0000 ca         1 50C      -0.172500
      2 C13         -0.0060     0.0000     2.4020 ca         1 50C      -0.172500
      3 C02          4.3870    -0.6540     0.2800 cc         1 50C      -0.321600
      4 C03          5.6780    -0.4070     0.6270 cd         1 50C       0.176300
      5 N04          6.8100    -0.8670    -0.0400 nv         1 50C      -0.943200
      6 N05          5.6650     0.3710     1.7410 na         1 50C      -0.065600
      7 N06          4.3290     0.6080     2.0880 nd         1 50C      -0.505800
      8 C07          3.5590     0.0000     1.2110 cc         1 50C       0.406800
      9 C08          2.0750     0.0000     1.2080 ca         1 50C      -0.124500
     10 C09          1.3790     0.0000     0.0000 ca         1 50C      -0.084000
     11 C11         -0.6950     0.0000     1.1990 ca         1 50C       0.135900
     12 F12         -2.0450    -0.0000     1.1950 f          1 50C      -0.141900
     13 C14          1.3730    -0.0000     2.4110 ca         1 50C      -0.084000
     14 H1          -0.5410    -0.0000    -0.9390 ha         1 50C       0.145500
     15 H2          -0.5530     0.0000     3.3370 ha         1 50C       0.145500
     16 H3           4.3770    -2.4590    -0.8490 hc         1 50C       0.038033
     17 H4           4.2220    -0.9860    -1.8170 hc         1 50C       0.038033
     18 H5           2.8470    -1.5710    -0.8690 hc         1 50C       0.038033
     19 H6           6.9220    -0.6880    -1.0180 hn         1 50C       0.438300
     20 H7           7.5120    -1.3770     0.4590 hn         1 50C       0.438300
     21 H8           6.4690     0.7130     2.2290 hn         1 50C       0.326700
     22 H9           1.9210     0.0000    -0.9380 ha         1 50C       0.149000
     23 H10          1.9090     0.0000     3.3520 ha         1 50C       0.149000
     24 C01          3.9260    -1.4750    -0.8960 c3         1 50C      -0.008800
@<TRIPOS>BOND
     1    12    11 1
     2     1    11 ar
     3     1    10 ar
     4    11     2 ar
     5    10     9 ar
     6     2    13 ar
     7     9    13 ar
     8     9     8 1
     9    24     3 1
    10     3     8 1
    11     3     4 2
    12     8     7 2
    13     7     6 1
    14     4     5 1
    15     4     6 1
    16     1    14 1
    17     2    15 1
    18    24    16 1
    19    24    17 1
    20    24    18 1
    21     5    19 1
    22     5    20 1
    23     6    21 1
    24    10    22 1
    25    13    23 1
@<TRIPOS>SUBSTRUCTURE
     1 50C         1 TEMP              0 ****  ****    0 ROOT
