@<TRIPOS>MOLECULE
50C
   24    25     1     0     0
SMALL
bcc


@<TRIPOS>ATOM
      1 C10          0.0000     0.0000     0.0000 ca         1 50C      -0.137000
      2 C13         -0.0060     0.0000     2.4020 ca         1 50C      -0.137000
      3 C02          4.3870    -0.6540     0.2800 cc         1 50C      -0.332600
      4 C03          5.6780    -0.4070     0.6270 cd         1 50C      -0.133700
      5 N04          6.8100    -0.8670    -0.0400 nv         1 50C      -0.472200
      6 N05          5.6650     0.3710     1.7410 na         1 50C       0.422400
      7 N06          4.3290     0.6080     2.0880 nd         1 50C      -0.656800
      8 C07          3.5590     0.0000     1.2110 cc         1 50C       0.438800
      9 C08          2.0750     0.0000     1.2080 ca         1 50C      -0.118500
     10 C09          1.3790     0.0000     0.0000 ca         1 50C      -0.064500
     11 C11         -0.6950     0.0000     1.1990 ca         1 50C       0.102900
     12 F12         -2.0450    -0.0000     1.1950 f          1 50C      -0.129900
     13 C14          1.3730    -0.0000     2.4110 ca         1 50C      -0.064500
     14 H1          -0.5410    -0.0000    -0.9390 ha         1 50C       0.117500
     15 H2          -0.5530     0.0000     3.3370 ha         1 50C       0.117500
     16 H3           4.3770    -2.4590    -0.8490 hc         1 50C       0.005700
     17 H4           4.2220    -0.9860    -1.8170 hc         1 50C       0.005700
     18 H5           2.8470    -1.5710    -0.8690 hc         1 50C       0.005700
     19 H6           6.9220    -0.6880    -1.0180 hn         1 50C       0.271800
     20 H7           7.5120    -1.3770     0.4590 hn         1 50C       0.271800
     21 H8           6.4690     0.7130     2.2290 hn         1 50C       0.146700
     22 H9           1.9210     0.0000    -0.9380 ha         1 50C       0.121000
     23 H10          1.9090     0.0000     3.3520 ha         1 50C       0.121000
     24 C01          3.9260    -1.4750    -0.8960 c3         1 50C       0.098200
@<TRIPOS>BOND
     1     1    10 ar  
     2     1    11 ar  
     3     1    14 1   
     4     2    11 ar  
     5     2    13 ar  
     6     2    15 1   
     7     3     4 2   
     8     3     8 1   
     9     3    24 1   
    10     4     5 1   
    11     4     6 1   
    12     5    19 1   
    13     5    20 1   
    14     6     7 1   
    15     6    21 1   
    16     7     8 2   
    17     8     9 1   
    18     9    10 ar  
    19     9    13 ar  
    20    10    22 1   
    21    11    12 1   
    22    13    23 1   
    23    16    24 1   
    24    17    24 1   
    25    18    24 1   
@<TRIPOS>SUBSTRUCTURE
     1 50C         1 TEMP              0 ****  ****    0 ROOT
