@<TRIPOS>MOLECULE
50D
   58    62     1     0     0
SMALL
bcc


@<TRIPOS>ATOM
      1 C4           0.0000     0.0000     0.0000 c2         1 50D       0.000000
      2 C14         -4.0630    -0.2050    -0.0470 c2         1 50D      -0.031000
      3 C5           1.3910     0.0000     0.0000 c2         1 50D      -0.098000
      4 C6           2.0650     0.0000     1.2230 c2         1 50D       0.075000
      5 C11         -2.7450    -0.2080    -2.4350 c2         1 50D      -0.249000
      6 C7           3.4960    -0.0010     1.2730 c1         1 50D      -0.104000
      7 C10         -2.0750    -0.1020    -1.2230 c3         1 50D       0.045000
      8 C12         -4.1260    -0.3160    -2.4370 c2         1 50D      -0.065000
      9 C13         -4.7940    -0.3150    -1.2230 c2         1 50D      -0.204000
     10 N3          -0.6770     0.0010     1.1380 n2         1 50D      -0.071000
     11 C1           1.3040     0.0010     2.4000 c2         1 50D      -0.128000
     12 C2          -0.0720     0.0000     2.3100 c2         1 50D      -0.072000
     13 N8           4.6320     0.0050     1.2940 n1         1 50D      -0.037000
     14 N9          -0.6870     0.0070    -1.2110 nu         1 50D      -0.098000
     15 N15         -2.7420    -0.1030    -0.0780 n2         1 50D      -0.077000
     16 N16         -5.2200    -0.2460     1.0800 n3         1 50D       0.048000
     17 C17         -4.8740     0.5240     2.0100 c3         1 50D      -0.157000
     18 C18         -3.9610    -0.2380     2.9580 c3         1 50D      -0.196000
     19 C19         -4.8190    -1.4020     2.9230 c3         1 50D       0.226000
     20 C20         -5.2620    -1.6660     1.6960 c3         1 50D      -0.202000
     21 F21         -3.9440    -2.3840     3.2130 f          1 50D      -0.151500
     22 F22         -5.6520    -1.4790     3.9670 f          1 50D      -0.151500
     23 C23         -4.6490    -0.4200    -3.8470 c3         1 50D      -0.021000
     24 C24         -3.7090    -1.0990    -4.5280 c3         1 50D      -0.164500
     25 C25         -3.1980    -2.7030    -4.3970 c3         1 50D      -0.112500
     26 N26         -4.2740    -3.3710    -4.2470 n3         1 50D       0.072000
     27 C27         -5.1150    -2.8790    -3.1290 c3         1 50D      -0.112500
     28 C28         -5.9150    -1.5200    -3.5030 c3         1 50D      -0.164500
     29 C29         -3.9810    -4.7860    -3.9780 c3         1 50D      -0.144000
     30 C30         -3.6840    -5.0880    -2.4970 c3         1 50D       0.198000
     31 O31         -2.4480    -5.1100    -2.5090 o          1 50D      -0.498000
     32 C32         -5.2390    -5.6550    -3.7850 c2         1 50D      -0.076000
     33 H1           2.0700     0.0720    -0.8410 ha         1 50D       0.133000
     34 H3          -5.7710    -0.6470    -1.5550 ha         1 50D       0.157000
     35 H4           1.6120    -0.2500     3.4080 ha         1 50D       0.127000
     36 H5          -0.8510    -0.1770     3.0410 h4         1 50D       0.133000
     37 H6          -1.4780     0.6150    -1.2900 DU         1 50D       0.195000
     38 H7          -4.1490     1.1240     1.4730 h1         1 50D       0.100500
     39 H8          -5.8190     1.0180     2.2020 h1         1 50D       0.100500
     40 H9          -4.2300     0.0830     3.9570 hc         1 50D       0.123000
     41 H10         -2.9150    -0.2940     2.6810 hc         1 50D       0.123000
     42 H11         -5.0070    -2.6170     1.2450 h1         1 50D       0.111000
     43 H12         -6.3330    -1.7570     1.8300 h1         1 50D       0.111000
     44 H13         -5.0610     0.5210    -4.1910 hc         1 50D       0.104000
     45 H14         -2.9270    -0.4730    -4.9390 hc         1 50D       0.071500
     46 H15         -4.1130    -1.2490    -5.5220 hc         1 50D       0.071500
     47 H16         -2.6200    -2.8850    -5.2950 h1         1 50D       0.076500
     48 H17         -2.5440    -2.4830    -3.5610 h1         1 50D       0.076500
     49 H19         -6.0340    -3.4290    -3.2890 h1         1 50D       0.076500
     50 H20         -4.8180    -2.9100    -2.0880 h1         1 50D       0.076500
     51 H21         -6.3640    -0.9940    -2.6700 hc         1 50D       0.071500
     52 H22         -6.4170    -1.7190    -4.4420 hc         1 50D       0.071500
     53 H23         -3.2600    -5.2070    -4.6670 h1         1 50D       0.157000
     54 H24         -4.0320    -6.0290    -2.0870 h1         1 50D      -0.004500
     55 H25         -4.0230    -4.3520    -1.7780 h1         1 50D      -0.004500
     56 H26         -6.1110    -5.2990    -4.3210 ha         1 50D       0.149500
     57 H27         -4.8600    -6.2570    -2.9680 ha         1 50D       0.149500
     58 H2          -2.2940    -0.2030    -3.4200 ha         1 50D       0.166000
@<TRIPOS>BOND
     1     1     3 1   
     2     1    10 1   
     3     1    14 1   
     4     2     9 1   
     5     2    15 1   
     6     2    16 1   
     7     3     4 1   
     8     3    33 1   
     9     4     6 1   
    10     4    11 1   
    11     5     7 1   
    12     5     8 1   
    13     5    58 1   
    14     6    13 1   
    15     7    14 1   
    16     7    15 1   
    17     7    37 1   
    18     8     9 1   
    19     8    23 1   
    20     9    34 1   
    21    10    12 1   
    22    11    12 1   
    23    11    35 1   
    24    12    36 1   
    25    14    37 1   
    26    16    17 1   
    27    16    20 1   
    28    17    18 1   
    29    17    38 1   
    30    17    39 1   
    31    18    19 1   
    32    18    40 1   
    33    18    41 1   
    34    19    20 1   
    35    19    21 1   
    36    19    22 1   
    37    20    42 1   
    38    20    43 1   
    39    23    24 1   
    40    23    28 1   
    41    23    44 1   
    42    24    25 1   
    43    24    45 1   
    44    24    46 1   
    45    25    26 1   
    46    25    47 1   
    47    25    48 1   
    48    26    27 1   
    49    26    29 1   
    50    27    28 1   
    51    27    49 1   
    52    27    50 1   
    53    28    51 1   
    54    28    52 1   
    55    29    30 1   
    56    29    32 1   
    57    29    53 1   
    58    30    31 1   
    59    30    54 1   
    60    30    55 1   
    61    32    56 1   
    62    32    57 1   
@<TRIPOS>SUBSTRUCTURE
     1 50D         1 TEMP              0 ****  ****    0 ROOT
