@<TRIPOS>MOLECULE
50E
   47    49     1     0     0
SMALL
bcc


@<TRIPOS>ATOM
      1 C14          0.0000     0.0000     0.0000 ca         1 50E       0.447200
      2 C5          -4.2820    -0.2400     2.6020 cc         1 50E      -0.220600
      3 C6          -2.9850    -0.1120     2.2410 cd         1 50E      -0.349300
      4 C11          1.3250     0.0110     2.3810 ca         1 50E      -0.236300
      5 C7          -2.2120    -0.1010     3.4130 cd         1 50E       0.448200
      6 C10         -0.0640     0.0090     2.3080 ca         1 50E       0.495200
      7 C12          2.0610     0.0000     1.2110 ca         1 50E      -0.127300
      8 C13          1.3800     0.0000     0.0000 ca         1 50E      -0.232300
      9 C3          -5.4610    -1.7380     5.5820 c3         1 50E      -0.011600
     10 C1          -5.6730     0.7490     5.7000 c3         1 50E      -0.011600
     11 N4          -4.3330    -0.3090     3.9490 na         1 50E       0.508400
     12 N8          -3.0230    -0.2190     4.4380 nc         1 50E      -0.696800
     13 N9          -0.8170     0.0140     3.4770 nu         1 50E      -0.360600
     14 N15         -0.6770     0.0040     1.1330 nb         1 50E      -0.611000
     15 C16          3.5670     0.0010     1.2480 c3         1 50E       0.639200
     16 F17          4.0050     0.6710     2.3940 f          1 50E      -0.205633
     17 F18          4.0340    -1.3180     1.2720 f          1 50E      -0.205633
     18 F19          4.0610     0.6490     0.1110 f          1 50E      -0.205633
     19 C20         -5.4620    -0.2920     1.6670 c3         1 50E       0.038600
     20 C21         -5.2020     0.6180     0.4630 c3         1 50E      -0.024400
     21 C22         -6.3760     0.5150    -0.5130 c3         1 50E       0.147300
     22 N23         -6.5270    -0.8780    -0.9540 n7         1 50E      -0.577200
     23 C24         -6.8260    -1.7620     0.1800 c3         1 50E       0.147300
     24 C25         -5.6650    -1.7280     1.1760 c3         1 50E      -0.024400
     25 H1          -0.5350    -0.0020    -0.9420 h4         1 50E      -0.015900
     26 H2          -2.6090    -0.0320     1.2280 ha         1 50E       0.190000
     27 H3           1.8230     0.0110     3.3430 ha         1 50E       0.131000
     28 H4           1.9270    -0.0060    -0.9350 ha         1 50E       0.129000
     29 H5          -4.6340    -1.6680     6.2770 hc         1 50E       0.016700
     30 H6          -5.3070    -2.5820     4.9210 hc         1 50E       0.016700
     31 H7          -6.3850    -1.8730     6.1310 hc         1 50E       0.016700
     32 H8          -5.6220     1.6660     5.1250 hc         1 50E       0.016700
     33 H9          -4.8200     0.6900     6.3640 hc         1 50E       0.016700
     34 H10         -6.5860     0.7390     6.2830 hc         1 50E       0.016700
     35 H11         -6.4100    -0.4940     4.1080 h1         1 50E       0.041700
     36 H12         -0.3630     0.1090     4.3640 hn         1 50E       0.288800
     37 H13         -6.3540     0.0410     2.1830 hc         1 50E       0.024700
     38 H14         -4.2920     0.3060    -0.0350 hc         1 50E       0.028450
     39 H15         -5.1030     1.6430     0.8000 hc         1 50E       0.028450
     40 H16         -7.2840     0.8360    -0.0170 h1         1 50E       0.004450
     41 H17         -6.1860     1.1450    -1.3730 h1         1 50E       0.004450
     42 H18         -7.2660    -0.9360    -1.6260 hn         1 50E       0.250800
     43 H20         -6.9610    -2.7750    -0.1800 h1         1 50E       0.004450
     44 H21         -7.7310    -1.4250     0.6710 h1         1 50E       0.004450
     45 H22         -5.8950    -2.3680     2.0190 hc         1 50E       0.028450
     46 H23         -4.7620    -2.0730     0.6880 hc         1 50E       0.028450
     47 C2          -5.5450    -0.4510     4.7580 c3         1 50E      -0.043000
@<TRIPOS>BOND
     1     1     8 ar  
     2     1    14 ar  
     3     1    25 1   
     4     2     3 2   
     5     2    11 1   
     6     2    19 1   
     7     3     5 1   
     8     3    26 1   
     9     4     6 ar  
    10     4     7 ar  
    11     4    27 1   
    12     5    12 2   
    13     5    13 1   
    14     6    13 1   
    15     6    14 ar  
    16     7     8 ar  
    17     7    15 1   
    18     8    28 1   
    19     9    29 1   
    20     9    30 1   
    21     9    31 1   
    22     9    47 1   
    23    10    32 1   
    24    10    33 1   
    25    10    34 1   
    26    10    47 1   
    27    11    12 1   
    28    11    47 1   
    29    13    36 1   
    30    15    16 1   
    31    15    17 1   
    32    15    18 1   
    33    19    20 1   
    34    19    24 1   
    35    19    37 1   
    36    20    21 1   
    37    20    38 1   
    38    20    39 1   
    39    21    22 1   
    40    21    40 1   
    41    21    41 1   
    42    22    23 1   
    43    22    42 1   
    44    23    24 1   
    45    23    43 1   
    46    23    44 1   
    47    24    45 1   
    48    24    46 1   
    49    35    47 1   
@<TRIPOS>SUBSTRUCTURE
     1 50E         1 TEMP              0 ****  ****    0 ROOT
