@<TRIPOS>MOLECULE
50F
   57    61     1     0     0
SMALL
bcc


@<TRIPOS>ATOM
      1 C4           0.0000     0.0000     0.0000 ca         1 50F       0.491200
      2 C5           1.3900     0.0000     0.0000 ca         1 50F      -0.228300
      3 C6           2.0660     0.0000     1.2220 ca         1 50F       0.074000
      4 C11         -2.9190    -0.1240    -0.0920 cc         1 50F      -0.369300
      5 C7           3.4970     0.0010     1.2700 cg         1 50F       0.222800
      6 C10         -2.0830    -0.1100    -1.2200 cc         1 50F       0.401200
      7 C12         -4.1950    -0.2560    -0.5230 cd         1 50F      -0.217600
      8 N3          -0.6760    -0.0010     1.1390 nb         1 50F      -0.621000
      9 C1           1.3060    -0.0010     2.4000 ca         1 50F      -0.223300
     10 C2          -0.0700    -0.0010     2.3100 ca         1 50F       0.454200
     11 N8           4.6330    -0.0040     1.2900 n1         1 50F      -0.359800
     12 N9          -0.6870     0.0060    -1.2080 nu         1 50F      -0.394600
     13 N13         -4.1720    -0.3240    -1.8710 na         1 50F       0.512400
     14 N14         -2.8380    -0.2260    -2.2880 nd         1 50F      -0.658800
     15 C15         -5.3380    -0.4700    -2.7450 c3         1 50F      -0.044000
     16 C16         -5.3930     0.6970    -3.7520 c3         1 50F      -0.027400
     17 C17         -4.7100     0.1340    -5.0230 c3         1 50F      -0.118400
     18 C18         -5.2030    -1.3330    -5.0560 c3         1 50F      -0.118400
     19 C19         -5.2180    -1.7610    -3.5730 c3         1 50F      -0.027400
     20 C20         -5.4220    -0.3220     0.3480 c3         1 50F       0.032600
     21 C21         -5.8920     1.0970     0.6780 c3         1 50F      -0.034900
     22 C22         -7.1030     1.0250     1.6130 c3         1 50F       0.134800
     23 N23         -6.7320     0.3140     2.8420 n3         1 50F      -0.597600
     24 C24         -6.3220    -1.0670     2.5550 c3         1 50F       0.134800
     25 C25         -5.0890    -1.0560     1.6490 c3         1 50F      -0.034900
     26 C26         -7.8280     0.3450     3.8190 cy         1 50F       0.069500
     27 C27         -7.5070    -0.3830     5.1380 cy         1 50F       0.142900
     28 O28         -8.1220     0.7500     5.7830 oq         1 50F      -0.379600
     29 C29         -7.8660     1.6290     4.6710 cy         1 50F       0.142900
     30 H1           1.9410     0.0010    -0.9330 ha         1 50F       0.131000
     31 H3           2.0250    -0.1390     3.1980 ha         1 50F       0.130000
     32 H4          -0.8270     0.0140     3.0860 h4         1 50F      -0.008900
     33 H5          -0.4940    -0.7040    -1.8870 hn         1 50F       0.279800
     34 H6          -6.2480    -0.4930    -2.1570 h1         1 50F       0.043700
     35 H7          -6.3950     1.0040    -3.4790 hc         1 50F       0.036450
     36 H8          -4.7910     1.3540    -3.1360 hc         1 50F       0.036450
     37 H9          -4.0030     0.7810    -5.5290 hc         1 50F       0.056950
     38 H10         -5.4840     0.0520    -5.7760 hc         1 50F       0.056950
     39 H11         -5.5590    -1.3950    -6.0770 hc         1 50F       0.056950
     40 H12         -4.4570    -2.0380    -4.7100 hc         1 50F       0.056950
     41 H13         -4.7330    -2.6850    -3.2790 hc         1 50F       0.036450
     42 H14         -6.1970    -1.9740    -3.9840 hc         1 50F       0.036450
     43 H15         -6.2120    -0.8510    -0.1710 hc         1 50F       0.021700
     44 H16         -6.3840     1.5680    -0.1640 hc         1 50F       0.039200
     45 H17         -5.3340     1.9690     0.9990 hc         1 50F       0.039200
     46 H18         -7.7280     0.1900     1.3180 h1         1 50F       0.032450
     47 H19         -7.5470     1.8530     2.1510 h1         1 50F       0.032450
     48 H21         -5.9530    -1.3440     3.5350 h1         1 50F       0.032450
     49 H22         -7.2310    -1.4250     2.0850 h1         1 50F       0.032450
     50 H23         -4.2950    -0.3420     1.8320 hc         1 50F       0.039200
     51 H24         -4.8070    -1.9590     1.1200 hc         1 50F       0.039200
     52 H25         -8.7970     0.0790     3.4170 h1         1 50F       0.030700
     53 H26         -8.2640    -1.0760     5.4860 h1         1 50F       0.038950
     54 H27         -6.7440    -1.1040     4.8700 h1         1 50F       0.038950
     55 H28         -8.8660     1.8000     5.0500 h1         1 50F       0.038950
     56 H29         -7.2200     2.4990     4.6680 h1         1 50F       0.038950
     57 H2          -2.4510     0.3670     0.7520 ha         1 50F       0.198000
@<TRIPOS>BOND
     1     1     2 ar  
     2     1     8 ar  
     3     1    12 1   
     4     2     3 ar  
     5     2    30 1   
     6     3     5 1   
     7     3     9 ar  
     8     4     6 1   
     9     4     7 2   
    10     4    57 1   
    11     5    11 3   
    12     6    12 1   
    13     6    14 2   
    14     7    13 1   
    15     7    20 1   
    16     8    10 ar  
    17     9    10 ar  
    18     9    31 1   
    19    10    32 1   
    20    12    33 1   
    21    13    14 1   
    22    13    15 1   
    23    15    16 1   
    24    15    19 1   
    25    15    34 1   
    26    16    17 1   
    27    16    35 1   
    28    16    36 1   
    29    17    18 1   
    30    17    37 1   
    31    17    38 1   
    32    18    19 1   
    33    18    39 1   
    34    18    40 1   
    35    19    41 1   
    36    19    42 1   
    37    20    21 1   
    38    20    25 1   
    39    20    43 1   
    40    21    22 1   
    41    21    44 1   
    42    21    45 1   
    43    22    23 1   
    44    22    46 1   
    45    22    47 1   
    46    23    24 1   
    47    23    26 1   
    48    24    25 1   
    49    24    48 1   
    50    24    49 1   
    51    25    50 1   
    52    25    51 1   
    53    26    27 1   
    54    26    29 1   
    55    26    52 1   
    56    27    28 1   
    57    27    53 1   
    58    27    54 1   
    59    28    29 1   
    60    29    55 1   
    61    29    56 1   
@<TRIPOS>SUBSTRUCTURE
     1 50F         1 TEMP              0 ****  ****    0 ROOT
