@<TRIPOS>MOLECULE
molecule
   57    61     1     0     0
SMALL
bcc


@<TRIPOS>ATOM
      1 C4           0.0000     0.0000     0.0000 ca         1 50F       0.652200
      2 C5           1.3900     0.0000     0.0000 ca         1 50F      -0.241300
      3 C6           2.0660     0.0000     1.2220 ca         1 50F       0.029000
      4 C11         -2.9190    -0.1240    -0.0920 cc         1 50F      -0.360300
      5 C7           3.4970     0.0010     1.2700 cg         1 50F       0.234800
      6 C10         -2.0830    -0.1100    -1.2200 cc         1 50F       0.487200
      7 C12         -4.1950    -0.2560    -0.5230 cd         1 50F      -0.064600
      8 N3          -0.6760    -0.0010     1.1390 nb         1 50F      -0.726000
      9 C1           1.3060    -0.0010     2.4000 ca         1 50F      -0.244300
     10 C2          -0.0700    -0.0010     2.3100 ca         1 50F       0.460200
     11 N8           4.6330    -0.0040     1.2900 n1         1 50F      -0.341800
     12 N9          -0.6870     0.0060    -1.2080 nu         1 50F      -0.759600
     13 N13         -4.1720    -0.3240    -1.8710 na         1 50F       0.078400
     14 N14         -2.8380    -0.2260    -2.2880 nd         1 50F      -0.524800
     15 C15         -5.3380    -0.4700    -2.7450 c3         1 50F       0.084000
     16 C16         -5.3930     0.6970    -3.7520 c3         1 50F      -0.090400
     17 C17         -4.7100     0.1340    -5.0230 c3         1 50F      -0.171900
     18 C18         -5.2030    -1.3330    -5.0560 c3         1 50F      -0.171900
     19 C19         -5.2180    -1.7610    -3.5730 c3         1 50F      -0.090400
     20 C20         -5.4220    -0.3220     0.3480 c3         1 50F      -0.008400
     21 C21         -5.8920     1.0970     0.6780 c3         1 50F      -0.076900
     22 C22         -7.1030     1.0250     1.6130 c3         1 50F       0.149800
     23 N23         -6.7320     0.3140     2.8420 n3         1 50F      -0.784600
     24 C24         -6.3220    -1.0670     2.5550 c3         1 50F       0.149800
     25 C25         -5.0890    -1.0560     1.6490 c3         1 50F      -0.076900
     26 C26         -7.8280     0.3450     3.8190 cy         1 50F       0.114500
     27 C27         -7.5070    -0.3830     5.1380 cy         1 50F       0.073900
     28 O28         -8.1220     0.7500     5.7830 oq         1 50F      -0.391600
     29 C29         -7.8660     1.6290     4.6710 cy         1 50F       0.073900
     30 H1           1.9410     0.0010    -0.9330 ha         1 50F       0.156000
     31 H3           2.0250    -0.1390     3.1980 ha         1 50F       0.156000
     32 H4          -0.8270     0.0140     3.0860 h4         1 50F       0.039100
     33 H5          -0.4940    -0.7040    -1.8870 hn         1 50F       0.421800
     34 H6          -6.2480    -0.4930    -2.1570 h1         1 50F       0.066700
     35 H7          -6.3950     1.0040    -3.4790 hc         1 50F       0.068200
     36 H8          -4.7910     1.3540    -3.1360 hc         1 50F       0.068200
     37 H9          -4.0030     0.7810    -5.5290 hc         1 50F       0.083950
     38 H10         -5.4840     0.0520    -5.7760 hc         1 50F       0.083950
     39 H11         -5.5590    -1.3950    -6.0770 hc         1 50F       0.083950
     40 H12         -4.4570    -2.0380    -4.7100 hc         1 50F       0.083950
     41 H13         -4.7330    -2.6850    -3.2790 hc         1 50F       0.068200
     42 H14         -6.1970    -1.9740    -3.9840 hc         1 50F       0.068200
     43 H15         -6.2120    -0.8510    -0.1710 hc         1 50F       0.046700
     44 H16         -6.3840     1.5680    -0.1640 hc         1 50F       0.066450
     45 H17         -5.3340     1.9690     0.9990 hc         1 50F       0.066450
     46 H18         -7.7280     0.1900     1.3180 h1         1 50F       0.054200
     47 H19         -7.5470     1.8530     2.1510 h1         1 50F       0.054200
     48 H21         -5.9530    -1.3440     3.5350 h1         1 50F       0.054200
     49 H22         -7.2310    -1.4250     2.0850 h1         1 50F       0.054200
     50 H23         -4.2950    -0.3420     1.8320 hc         1 50F       0.066450
     51 H24         -4.8070    -1.9590     1.1200 hc         1 50F       0.066450
     52 H25         -8.7970     0.0790     3.4170 h1         1 50F       0.045700
     53 H26         -8.2640    -1.0760     5.4860 h1         1 50F       0.076450
     54 H27         -6.7440    -1.1040     4.8700 h1         1 50F       0.076450
     55 H28         -8.8660     1.8000     5.0500 h1         1 50F       0.076450
     56 H29         -7.2200     2.4990     4.6680 h1         1 50F       0.076450
     57 H2          -2.4510     0.3670     0.7520 ha         1 50F       0.208000
@<TRIPOS>BOND
     1    29    28 1
     2    29    26 1
     3    28    27 1
     4    22    21 1
     5    22    23 1
     6    26    27 1
     7    26    23 1
     8    21    20 1
     9    23    24 1
    10    16    17 1
    11    16    15 1
    12    20     7 1
    13    20    25 1
    14    17    18 1
    15    24    25 1
    16     7    13 1
    17     7     4 2
    18    15    13 1
    19    15    19 1
    20    13    14 1
    21     4     6 1
    22    14     6 2
    23     6    12 1
    24    18    19 1
    25    12     1 1
    26     1     8 ar
    27     1     2 ar
    28     8    10 ar
    29     2     3 ar
    30    10     9 ar
    31     3     9 ar
    32     3     5 1
    33     5    11 3
    34     2    30 1
    35     4    57 1
    36     9    31 1
    37    10    32 1
    38    12    33 1
    39    15    34 1
    40    16    35 1
    41    16    36 1
    42    17    37 1
    43    17    38 1
    44    18    39 1
    45    18    40 1
    46    19    41 1
    47    19    42 1
    48    20    43 1
    49    21    44 1
    50    21    45 1
    51    22    46 1
    52    22    47 1
    53    24    48 1
    54    24    49 1
    55    25    50 1
    56    25    51 1
    57    26    52 1
    58    27    53 1
    59    27    54 1
    60    29    55 1
    61    29    56 1
@<TRIPOS>SUBSTRUCTURE
     1 50F         1 TEMP              0 ****  ****    0 ROOT
