@<TRIPOS>MOLECULE
molecule
   49    52     1     0     0
SMALL
bcc


@<TRIPOS>ATOM
      1 N2           0.0000     0.0000     0.0000 nc         1 50H      -0.791000
      2 C6           2.0460     0.0000     1.1630 cd         1 50H      -0.226600
      3 C9           1.3180    -0.0060    -4.9790 c          1 50H       0.522700
      4 C13          1.3690     0.0000    -2.4900 ca         1 50H       0.003000
      5 C20         -2.8720    -0.9950    -2.3460 ca         1 50H      -0.183000
      6 C18         -4.0850    -0.3500    -2.5320 ca         1 50H       0.105100
      7 C16         -4.6270     0.4200    -1.5070 ca         1 50H       0.161100
      8 C26          3.4570     0.0060    -3.7010 ca         1 50H      -0.132000
      9 C27          4.1510     0.0120    -2.5080 ca         1 50H      -0.102000
     10 C25          3.4690     0.0010    -1.3060 ca         1 50H      -0.063000
     11 C22         -2.2030    -0.8780    -1.1420 ca         1 50H      -0.139000
     12 C15         -3.9550     0.5400    -0.3030 ca         1 50H      -0.222000
     13 C12          0.6720     0.0000     4.4260 cc         1 50H       0.037600
     14 C14          1.7880     0.0000     3.6590 cd         1 50H      -0.212100
     15 C10          2.0740     0.0010    -1.2920 ca         1 50H      -0.099500
     16 C11          2.0610     0.0000    -3.7000 ca         1 50H      -0.216600
     17 C17         -2.7450    -0.1150    -0.1160 ca         1 50H       0.133600
     18 C3           0.0100     0.0010     2.3660 cd         1 50H      -0.184600
     19 C5           1.3450     0.0000     0.0000 cc         1 50H       0.455800
     20 C1          -0.6810    -0.0000     1.1270 cd         1 50H       0.775200
     21 C29         -4.1290    -1.2730    -4.7230 c3         1 50H       0.129700
     22 C28         -6.3140     1.8270    -0.5950 c3         1 50H       0.127700
     23 N7          -0.3940     0.0000     3.6240 nc         1 50H      -0.279600
     24 N4           1.3820     0.0000     2.3600 na         1 50H       0.069700
     25 N21          1.9890    -0.0060    -6.1480 nz         1 50H      -0.860400
     26 N8          -2.0670     0.0000     1.1030 nu         1 50H      -0.733300
     27 O19          0.1020    -0.0120    -4.9760 o          1 50H      -0.420100
     28 H1           3.1300     0.0000     1.1440 h4         1 50H       0.163000
     29 H2           0.2850     0.0000    -2.4830 ha         1 50H       0.199000
     30 H3          -2.4620    -1.6140    -3.1350 ha         1 50H       0.134000
     31 H4           3.9970     0.0150    -4.6400 ha         1 50H       0.097000
     32 H5           5.2340     0.0140    -2.5140 ha         1 50H       0.161000
     33 H6           4.0190     0.0030    -0.3730 ha         1 50H       0.162000
     34 H7          -1.2800    -1.4220    -0.9820 ha         1 50H       0.146000
     35 H8          -4.0290     1.2700     0.4940 ha         1 50H       0.155000
     36 H9           0.6490    -0.0000     5.5090 h4         1 50H       0.199000
     37 H10          2.8120     0.0000     4.0130 h4         1 50H       0.191000
     38 H11         -4.7640    -1.3030    -5.6000 h1         1 50H       0.038033
     39 H12         -4.0470    -2.2690    -4.3030 h1         1 50H       0.038033
     40 H13         -3.1440    -0.9180    -5.0020 h1         1 50H       0.038033
     41 H14         -6.3860     1.2010     0.2860 h1         1 50H       0.045033
     42 H15         -5.6490     2.6580    -0.3940 h1         1 50H       0.045033
     43 H16         -7.2960     2.2040    -0.8510 h1         1 50H       0.045033
     44 H17          2.5600    -0.8260    -6.2050 hn         1 50H       0.538133
     45 H18          1.3370    -0.0000    -6.9070 hn         1 50H       0.538133
     46 H19         -2.5830     0.0490     1.9590 hn         1 50H       0.484800
     47 O24         -4.7440    -0.4690    -3.7160 os         1 50H      -0.303900
     48 H213         2.8410    -0.5210    -6.0440 hn         1 50H       0.538133
     49 O23         -5.8170     1.0530    -1.6890 os         1 50H      -0.306900
@<TRIPOS>BOND
     1    21    47 1   
     2    23    13 1   
     3    23    18 2   
     4    13    14 2   
     5    11     5 ar  
     6    11    17 ar  
     7     5     6 ar  
     8    26    17 1   
     9    26    20 1   
    10    17    12 ar  
    11     6    47 1   
    12     6     7 ar  
    13    18    20 1   
    14    18    24 1   
    15    14    24 1   
    16    20     1 2   
    17    12     7 ar  
    18    24     2 1   
    19     7    49 1   
    20     1    19 1   
    21    49    22 1   
    22     2    19 2   
    23    19    15 1   
    24    15     4 ar  
    25    15    10 ar  
    26     4    16 ar  
    27    10     9 ar  
    28    16     8 ar  
    29    16     3 1   
    30     9     8 ar  
    31    25     3 1   
    32     3    27 2   
    33     2    28 1   
    34     4    29 1   
    35     5    30 1   
    36     8    31 1   
    37     9    32 1   
    38    10    33 1   
    39    11    34 1   
    40    12    35 1   
    41    13    36 1   
    42    14    37 1   
    43    21    38 1   
    44    21    39 1   
    45    21    40 1   
    46    22    41 1   
    47    22    42 1   
    48    22    43 1   
    49    25    44 1   
    50    25    45 1   
    51    26    46 1   
    52    48    25 1   
@<TRIPOS>SUBSTRUCTURE
     1 50H         1 TEMP              0 ****  ****    0 ROOT
