@<TRIPOS>MOLECULE
50H
   49    53     1     0     0
SMALL
bcc


@<TRIPOS>ATOM
      1 N2           0.0000     0.0000     0.0000 n2         1 50H      -0.195000
      2 C6           2.0460     0.0000     1.1630 c2         1 50H      -0.362000
      3 C9           1.3180    -0.0060    -4.9790 c2         1 50H       0.176000
      4 C13          1.3690     0.0000    -2.4900 ca         1 50H       0.038000
      5 C20         -2.8720    -0.9950    -2.3460 ca         1 50H      -0.171000
      6 C18         -4.0850    -0.3500    -2.5320 ca         1 50H       0.068000
      7 C16         -4.6270     0.4200    -1.5070 ca         1 50H       0.122000
      8 C26          3.4570     0.0060    -3.7010 ca         1 50H      -0.103000
      9 C27          4.1510     0.0120    -2.5080 ca         1 50H      -0.070000
     10 C25          3.4690     0.0010    -1.3060 ca         1 50H      -0.027000
     11 C22         -2.2030    -0.8780    -1.1420 ca         1 50H      -0.112000
     12 C15         -3.9550     0.5400    -0.3030 ca         1 50H      -0.196000
     13 C12          0.6720     0.0000     4.4260 c2         1 50H      -0.083000
     14 C14          1.7880     0.0000     3.6590 c2         1 50H      -0.389000
     15 C10          2.0740     0.0010    -1.2920 ca         1 50H      -0.004000
     16 C11          2.0610     0.0000    -3.7000 ca         1 50H      -0.217000
     17 C17         -2.7450    -0.1150    -0.1160 ca         1 50H      -0.121000
     18 C3           0.0100     0.0010     2.3660 c2         1 50H      -0.324000
     19 C5           1.3450     0.0000     0.0000 c2         1 50H       0.031000
     20 C1          -0.6810    -0.0000     1.1270 c2         1 50H       0.066000
     21 C29         -4.1290    -1.2730    -4.7230 c3         1 50H       0.053000
     22 C28         -6.3140     1.8270    -0.5950 c3         1 50H       0.054000
     23 N7          -0.3940     0.0000     3.6240 n2         1 50H      -0.071000
     24 N4           1.3820     0.0000     2.3600 na         1 50H       0.590000
     25 N21          1.9890    -0.0060    -6.1480 nz         1 50H       0.306000
     26 N8          -2.0670     0.0000     1.1030 nu         1 50H       0.245000
     27 O19          0.1020    -0.0120    -4.9760 o          1 50H      -0.196000
     28 H1           3.1300     0.0000     1.1440 h4         1 50H       0.151000
     29 H2           0.2850     0.0000    -2.4830 ha         1 50H       0.163000
     30 H3          -2.4620    -1.6140    -3.1350 ha         1 50H       0.115000
     31 H4           3.9970     0.0150    -4.6400 ha         1 50H       0.071000
     32 H5           5.2340     0.0140    -2.5140 ha         1 50H       0.126000
     33 H6           4.0190     0.0030    -0.3730 ha         1 50H       0.130000
     34 H7          -1.2800    -1.4220    -0.9820 ha         1 50H       0.126000
     35 H8          -4.0290     1.2700     0.4940 ha         1 50H       0.133000
     36 H9           0.6490    -0.0000     5.5090 h4         1 50H       0.152000
     37 H10          2.8120     0.0000     4.0130 h4         1 50H       0.167000
     38 H11         -4.7640    -1.3030    -5.6000 h1         1 50H       0.034000
     39 H12         -4.0470    -2.2690    -4.3030 h1         1 50H       0.034000
     40 H13         -3.1440    -0.9180    -5.0020 h1         1 50H       0.034000
     41 H14         -6.3860     1.2010     0.2860 h1         1 50H       0.039000
     42 H15         -5.6490     2.6580    -0.3940 h1         1 50H       0.039000
     43 H16         -7.2960     2.2040    -0.8510 h1         1 50H       0.039000
     44 H17          2.5600    -0.8260    -6.2050 DU         1 50H       0.215000
     45 H18          1.3370    -0.0000    -6.9070 hn         1 50H       0.139000
     46 H19         -2.5830     0.0490     1.9590 hn         1 50H       0.106000
     47 O24         -4.7440    -0.4690    -3.7160 os         1 50H      -0.166000
     48 H213         2.8410    -0.5210    -6.0440 DU         1 50H       0.215000
     49 O23         -5.8170     1.0530    -1.6890 os         1 50H      -0.172000
@<TRIPOS>BOND
     1     1    19 1   
     2     1    20 1   
     3     2    19 1   
     4     2    24 1   
     5     2    28 1   
     6     3    16 1   
     7     3    25 1   
     8     3    27 1   
     9     4    15 1   
    10     4    16 1   
    11     4    29 1   
    12     5     6 1   
    13     5    11 1   
    14     5    30 1   
    15     6     7 1   
    16     6    47 1   
    17     7    12 1   
    18     7    49 1   
    19     8     9 1   
    20     8    16 1   
    21     8    31 1   
    22     9    10 1   
    23     9    32 1   
    24    10    15 1   
    25    10    33 1   
    26    11    17 1   
    27    11    34 1   
    28    12    17 1   
    29    12    35 1   
    30    13    14 1   
    31    13    23 1   
    32    13    36 1   
    33    14    24 1   
    34    14    37 1   
    35    15    19 1   
    36    17    26 1   
    37    18    20 1   
    38    18    23 1   
    39    18    24 1   
    40    20    26 1   
    41    21    38 1   
    42    21    39 1   
    43    21    40 1   
    44    21    47 1   
    45    22    41 1   
    46    22    42 1   
    47    22    43 1   
    48    22    49 1   
    49    25    44 1   
    50    25    45 1   
    51    25    48 1   
    52    26    46 1   
    53    44    48 1   
@<TRIPOS>SUBSTRUCTURE
     1 50H         1 TEMP              0 ****  ****    0 ROOT
