@<TRIPOS>MOLECULE
molecule
   65    69     1     0     0
SMALL
bcc


@<TRIPOS>ATOM
      1 C1           0.0000     0.0000     0.0000 c3         1 50J       0.104300
      2 C3           2.1380     0.0000     1.1680 c          1 50J       0.674700
      3 O4           1.5290    -0.0000     2.2210 o          1 50J      -0.607100
      4 C7           5.6920     0.0000    -0.0370 ca         1 50J      -0.156500
      5 C8           6.3850     0.0000     1.1700 ca         1 50J       0.076600
      6 C10          8.4520     0.6850     2.1160 c          1 50J       0.678700
      7 C12          9.9270     0.7710     2.0570 ca         1 50J      -0.157600
      8 C13         10.6230     0.1480     1.0200 ca         1 50J      -0.098000
      9 C14         12.0010     0.2290     0.9640 ca         1 50J      -0.138000
     10 C15         12.6970     0.9250     1.9330 ca         1 50J      -0.096000
     11 C16         12.0130     1.5500     2.9740 ca         1 50J      -0.142500
     12 C19         14.1190     2.3620     3.9410 cc         1 50J      -0.266600
     13 C21         16.1440     3.2870     5.0980 cc         1 50J      -0.227100
     14 C22         16.2480     4.0370     6.2200 cd         1 50J       0.022600
     15 N23         15.0230     4.2560     6.6990 nd         1 50J      -0.299600
     16 C24         14.1390     3.6670     5.9150 cc         1 50J      -0.184600
     17 N26         12.0110     4.1710     6.9770 nu         1 50J      -0.739300
     18 C27         10.6120     4.1630     6.9540 ca         1 50J       0.142600
     19 C30          7.8400     4.1470     6.9030 ca         1 50J       0.106100
     20 C32          5.8550     4.1920     5.5940 c3         1 50J       0.123700
     21 C33          8.5140     4.0910     8.1200 ca         1 50J       0.130100
     22 C35          8.5700     3.9720    10.4940 c3         1 50J       0.126700
     23 N2           1.4650     0.0000     0.0000 ns         1 50J      -0.588900
     24 C5           3.6140     0.0000     1.1690 ca         1 50J      -0.165600
     25 C6           4.3150     0.0010    -0.0400 ca         1 50J      -0.071000
     26 O11          7.8470     1.2310     3.0170 o          1 50J      -0.588100
     27 C17         10.6240     1.4790     3.0340 ca         1 50J      -0.025000
     28 C18         12.7640     2.2960     4.0140 cd         1 50J       0.493800
     29 N20         14.8190     3.0490     4.8960 na         1 50J       0.082700
     30 C25         12.7240     3.5670     5.9530 cc         1 50J       0.761200
     31 C28          9.9370     4.2140     5.7420 ca         1 50J      -0.127000
     32 C29          8.5540     4.2060     5.7180 ca         1 50J      -0.170000
     33 O31          6.4800     4.1380     6.8780 os         1 50J      -0.314900
     34 O34          7.8130     4.0280     9.2830 os         1 50J      -0.309900
     35 C36          9.8990     4.0990     8.1440 ca         1 50J      -0.222000
     36 N37         12.0920     2.8960     5.0120 nd         1 50J      -0.771000
     37 C38          5.6900    -0.0000     2.3760 ca         1 50J      -0.156500
     38 C39          4.3140    -0.0000     2.3780 ca         1 50J      -0.071000
     39 H1          -0.3610    -0.8860     0.5080 h1         1 50J       0.042033
     40 H2          -0.3610     0.0030    -1.0210 h1         1 50J       0.042033
     41 H3          -0.3610     0.8830     0.5130 h1         1 50J       0.042033
     42 H4           6.2350     0.0010    -0.9740 ha         1 50J       0.152000
     43 H5          10.0820    -0.3990     0.2570 ha         1 50J       0.124000
     44 H6          12.5370    -0.2550     0.1570 ha         1 50J       0.137000
     45 H7          13.7770     0.9820     1.8860 ha         1 50J       0.133000
     46 H8          14.6480     1.8000     3.1810 h4         1 50J       0.167000
     47 H9          16.9620     2.9420     4.4760 h4         1 50J       0.183000
     48 H10         17.1720     4.3980     6.6560 h4         1 50J       0.186000
     49 H11         12.4970     4.6400     7.7150 hn         1 50J       0.474800
     50 H12          4.7780     4.1950     5.7160 h1         1 50J       0.043367
     51 H13          6.1630     5.0940     5.0790 h1         1 50J       0.043367
     52 H14          6.1490     3.3260     5.0120 h1         1 50J       0.043367
     53 H15          9.1880     4.8580    10.5750 h1         1 50J       0.039700
     54 H16          9.2010     3.0910    10.4860 h1         1 50J       0.039700
     55 H17          7.8950     3.9250    11.3400 h1         1 50J       0.039700
     56 H18          1.9650    -0.0280    -0.8660 hn         1 50J       0.312500
     57 H19          3.7750     0.0010    -0.9800 ha         1 50J       0.144000
     58 H20          8.2790    -0.5360     0.4900 hn         1 50J       0.327500
     59 H21         10.0890     1.9640     3.8420 ha         1 50J       0.186000
     60 H22         10.4930     4.2600     4.8130 ha         1 50J       0.158000
     61 H23          8.0290     4.2470     4.7710 ha         1 50J       0.151000
     62 H24         10.4250     4.0560     9.0900 ha         1 50J       0.141000
     63 H25          6.2330    -0.0000     3.3130 ha         1 50J       0.152000
     64 H26          3.7740    -0.0010     3.3170 ha         1 50J       0.144000
     65 N9           7.7780    -0.0000     1.1710 ns         1 50J      -0.477100
@<TRIPOS>BOND
     1    26     6 2
     2     8     9 ar
     3     8     7 ar
     4     9    10 ar
     5     6     7 1
     6     6    65 1
     7     7    27 ar
     8    10    11 ar
     9     4    25 ar
    10     4     5 ar
    11    65     5 1
    12    27    11 ar
    13    11    28 1
    14    25    24 ar
    15     5    37 ar
    16    22    34 1
    17    24    38 ar
    18    24     2 1
    19    37    38 ar
    20    28    12 2
    21    28    36 1
    22    34    21 1
    23    23     2 1
    24    23     1 1
    25    12    29 1
    26     2     3 2
    27    36    30 2
    28    21    35 ar
    29    21    19 ar
    30    35    18 ar
    31    29    13 1
    32    29    16 1
    33    30    16 1
    34    30    17 1
    35    33    19 1
    36    33    20 1
    37    19    32 ar
    38    13    14 2
    39    16    15 2
    40    18    17 1
    41    18    31 ar
    42    32    31 ar
    43    14    15 1
    44     1    39 1
    45     1    40 1
    46     1    41 1
    47     4    42 1
    48     8    43 1
    49     9    44 1
    50    10    45 1
    51    12    46 1
    52    13    47 1
    53    14    48 1
    54    17    49 1
    55    20    50 1
    56    20    51 1
    57    20    52 1
    58    22    53 1
    59    22    54 1
    60    22    55 1
    61    23    56 1
    62    25    57 1
    63    65    58 1
    64    27    59 1
    65    31    60 1
    66    32    61 1
    67    35    62 1
    68    37    63 1
    69    38    64 1
@<TRIPOS>SUBSTRUCTURE
     1 50J         1 TEMP              0 ****  ****    0 ROOT
