@<TRIPOS>MOLECULE
50J
   65    69     1     0     0
SMALL
bcc


@<TRIPOS>ATOM
      1 C1           0.0000     0.0000     0.0000 c3         1 50J       0.088300
      2 C3           2.1380     0.0000     1.1680 c          1 50J       0.596700
      3 O4           1.5290    -0.0000     2.2210 o          1 50J      -0.647100
      4 C7           5.6920     0.0000    -0.0370 ca         1 50J      -0.131500
      5 C8           6.3850     0.0000     1.1700 ca         1 50J      -0.070400
      6 C10          8.4520     0.6850     2.1160 c          1 50J       0.590700
      7 C12          9.9270     0.7710     2.0570 ca         1 50J      -0.171600
      8 C13         10.6230     0.1480     1.0200 ca         1 50J      -0.076000
      9 C14         12.0010     0.2290     0.9640 ca         1 50J      -0.112000
     10 C15         12.6970     0.9250     1.9330 ca         1 50J      -0.069000
     11 C16         12.0130     1.5500     2.9740 ca         1 50J      -0.160500
     12 C19         14.1190     2.3620     3.9410 cc         1 50J      -0.499600
     13 C21         16.1440     3.2870     5.0980 cc         1 50J      -0.437100
     14 C22         16.2480     4.0370     6.2200 cd         1 50J       0.041600
     15 N23         15.0230     4.2560     6.6990 nd         1 50J      -0.232600
     16 C24         14.1390     3.6670     5.9150 cc         1 50J      -0.417600
     17 N26         12.0110     4.1710     6.9770 nu         1 50J      -0.244300
     18 C27         10.6120     4.1630     6.9540 ca         1 50J      -0.025400
     19 C30          7.8400     4.1470     6.9030 ca         1 50J       0.115100
     20 C32          5.8550     4.1920     5.5940 c3         1 50J       0.233700
     21 C33          8.5140     4.0910     8.1200 ca         1 50J       0.133100
     22 C35          8.5700     3.9720    10.4940 c3         1 50J       0.240700
     23 N2           1.4650     0.0000     0.0000 ns         1 50J      -0.202900
     24 C5           3.6140     0.0000     1.1690 ca         1 50J      -0.171600
     25 C6           4.3150     0.0010    -0.0400 ca         1 50J      -0.042000
     26 O11          7.8470     1.2310     3.0170 o          1 50J      -0.632100
     27 C17         10.6240     1.4790     3.0340 ca         1 50J       0.004000
     28 C18         12.7640     2.2960     4.0140 cd         1 50J       0.514800
     29 N20         14.8190     3.0490     4.8960 na         1 50J       0.688700
     30 C25         12.7240     3.5670     5.9530 cc         1 50J       0.575200
     31 C28          9.9370     4.2140     5.7420 ca         1 50J      -0.102000
     32 C29          8.5540     4.2060     5.7180 ca         1 50J      -0.155000
     33 O31          6.4800     4.1380     6.8780 os         1 50J      -0.293900
     34 O34          7.8130     4.0280     9.2830 os         1 50J      -0.290900
     35 C36          9.8990     4.0990     8.1440 ca         1 50J      -0.205000
     36 N37         12.0920     2.8960     5.0120 nd         1 50J      -0.699000
     37 C38          5.6900    -0.0000     2.3760 ca         1 50J      -0.131500
     38 C39          4.3140    -0.0000     2.3780 ca         1 50J      -0.042000
     39 H1          -0.3610    -0.8860     0.5080 h1         1 50J       0.009033
     40 H2          -0.3610     0.0030    -1.0210 h1         1 50J       0.009033
     41 H3          -0.3610     0.8830     0.5130 h1         1 50J       0.009033
     42 H4           6.2350     0.0010    -0.9740 ha         1 50J       0.128000
     43 H5          10.0820    -0.3990     0.2570 ha         1 50J       0.099000
     44 H6          12.5370    -0.2550     0.1570 ha         1 50J       0.107000
     45 H7          13.7770     0.9820     1.8860 ha         1 50J       0.109000
     46 H8          14.6480     1.8000     3.1810 h4         1 50J       0.157000
     47 H9          16.9620     2.9420     4.4760 h4         1 50J       0.161000
     48 H10         17.1720     4.3980     6.6560 h4         1 50J       0.142000
     49 H11         12.4970     4.6400     7.7150 hn         1 50J       0.300800
     50 H12          4.7780     4.1950     5.7160 h1         1 50J       0.001367
     51 H13          6.1630     5.0940     5.0790 h1         1 50J       0.001367
     52 H14          6.1490     3.3260     5.0120 h1         1 50J       0.001367
     53 H15          9.1880     4.8580    10.5750 h1         1 50J      -0.003967
     54 H16          9.2010     3.0910    10.4860 h1         1 50J      -0.003967
     55 H17          7.8950     3.9250    11.3400 h1         1 50J      -0.003967
     56 H18          1.9650    -0.0280    -0.8660 hn         1 50J       0.174500
     57 H19          3.7750     0.0010    -0.9800 ha         1 50J       0.115000
     58 H20          8.2790    -0.5360     0.4900 hn         1 50J       0.174500
     59 H21         10.0890     1.9640     3.8420 ha         1 50J       0.155000
     60 H22         10.4930     4.2600     4.8130 ha         1 50J       0.137000
     61 H23          8.0290     4.2470     4.7710 ha         1 50J       0.130000
     62 H24         10.4250     4.0560     9.0900 ha         1 50J       0.125000
     63 H25          6.2330    -0.0000     3.3130 ha         1 50J       0.128000
     64 H26          3.7740    -0.0010     3.3170 ha         1 50J       0.115000
     65 N9           7.7780    -0.0000     1.1710 ns         1 50J      -0.039100
@<TRIPOS>BOND
     1     1    23 1   
     2     1    39 1   
     3     1    40 1   
     4     1    41 1   
     5     2     3 2   
     6     2    23 1   
     7     2    24 1   
     8     4     5 ar  
     9     4    25 ar  
    10     4    42 1   
    11     5    37 ar  
    12     5    65 1   
    13     6     7 1   
    14     6    26 2   
    15     6    65 1   
    16     7     8 ar  
    17     7    27 ar  
    18     8     9 ar  
    19     8    43 1   
    20     9    10 ar  
    21     9    44 1   
    22    10    11 ar  
    23    10    45 1   
    24    11    27 ar  
    25    11    28 1   
    26    12    28 2   
    27    12    29 1   
    28    12    46 1   
    29    13    14 2   
    30    13    29 1   
    31    13    47 1   
    32    14    15 1   
    33    14    48 1   
    34    15    16 2   
    35    16    29 1   
    36    16    30 1   
    37    17    18 1   
    38    17    30 1   
    39    17    49 1   
    40    18    31 ar  
    41    18    35 ar  
    42    19    21 ar  
    43    19    32 ar  
    44    19    33 1   
    45    20    33 1   
    46    20    50 1   
    47    20    51 1   
    48    20    52 1   
    49    21    34 1   
    50    21    35 ar  
    51    22    34 1   
    52    22    53 1   
    53    22    54 1   
    54    22    55 1   
    55    23    56 1   
    56    24    25 ar  
    57    24    38 ar  
    58    25    57 1   
    59    27    59 1   
    60    28    36 1   
    61    30    36 2   
    62    31    32 ar  
    63    31    60 1   
    64    32    61 1   
    65    35    62 1   
    66    37    38 ar  
    67    37    63 1   
    68    38    64 1   
    69    58    65 1   
@<TRIPOS>SUBSTRUCTURE
     1 50J         1 TEMP              0 ****  ****    0 ROOT
