@<TRIPOS>MOLECULE
50K
   48    51     1     0     0
SMALL
bcc


@<TRIPOS>ATOM
      1 N1           0.0000     0.0000     0.0000 nz         1 50K       0.159400
      2 N3           4.3960     0.0000     4.7300 na         1 50K       0.397600
      3 C4           1.9150    -0.4230     1.9840 ca         1 50K      -0.198000
      4 C5           1.3780     0.0000     0.0000 ce         1 50K       0.181800
      5 C6           4.3490     0.7550     2.6170 ca         1 50K      -0.106800
      6 C7           3.6490    -0.0060     3.5760 ca         1 50K      -0.221200
      7 C8           5.5430     0.7360     4.5400 cc         1 50K      -0.291900
      8 C10          6.5860     0.9690     5.5620 ca         1 50K       0.468100
      9 C13          7.4210     0.6500     7.7850 ca         1 50K      -0.079000
     10 C15          9.7990     2.7590     5.7500 c3         1 50K       0.123500
     11 C17         10.8650     4.0480     3.8940 c3         1 50K      -0.021900
     12 C20          9.8860     3.9890     6.6550 c3         1 50K      -0.033900
     13 O1          10.9880     1.9780     5.8910 oh         1 50K      -0.572800
     14 C19         11.0990     4.8310     6.2560 c3         1 50K      -0.021900
     15 C18         10.9530     5.2790     4.7990 c3         1 50K      -0.024400
     16 C16          9.6520     3.2060     4.2940 c3         1 50K      -0.033900
     17 C11          8.6050     1.9290     6.1440 ca         1 50K       0.337600
     18 N4           7.6540     1.6990     5.2610 nb         1 50K      -0.538000
     19 C12          8.5230     1.4160     7.4250 ca         1 50K      -0.181300
     20 C14          6.4370     0.4240     6.8390 ca         1 50K      -0.243300
     21 C1           2.4300    -0.5880     3.2350 ca         1 50K      -0.051000
     22 C9           5.5720     1.2140     3.2720 cd         1 50K      -0.098200
     23 C2           3.8190     0.9190     1.3370 ca         1 50K       0.074000
     24 C3           2.6000     0.3310     1.0220 ca         1 50K      -0.092900
     25 N2           2.0290    -0.3480    -1.0740 n2         1 50K      -0.473100
     26 H1          -0.3340    -0.2910    -0.8980 hn         1 50K       0.224133
     27 H2          -0.3340     0.9230     0.1970 hn         1 50K       0.224133
     28 H3           4.1430    -0.4620     5.5800 hn         1 50K       0.126700
     29 H4           0.9660    -0.8800     1.7300 ha         1 50K       0.063000
     30 H5           7.4440     0.0610     8.6940 ha         1 50K       0.118000
     31 H6          10.7580     4.3660     2.8640 hc         1 50K       0.022200
     32 H7          11.7660     3.4560     4.0040 hc         1 50K       0.022200
     33 H8           8.9850     4.5810     6.5460 hc         1 50K       0.023200
     34 H9           9.9930     3.6710     7.6850 hc         1 50K       0.023200
     35 H10         10.8410     1.1150     5.5410 ho         1 50K       0.393000
     36 H11         11.9990     4.2380     6.3610 hc         1 50K       0.022200
     37 H12         11.1580     5.7030     6.8960 hc         1 50K       0.022200
     38 H13         11.8140     5.8730     4.5170 hc         1 50K       0.013700
     39 H14         10.0500     5.8690     4.6930 hc         1 50K       0.013700
     40 H15          8.7520     3.7990     4.1890 hc         1 50K       0.023200
     41 H16          9.5930     2.3340     3.6540 hc         1 50K       0.023200
     42 H17          9.3720     1.4910     8.0930 ha         1 50K       0.134000
     43 H18          5.7200    -0.1660     7.3960 ha         1 50K       0.127000
     44 H19          1.8890    -1.1750     3.9680 ha         1 50K       0.108000
     45 H20          6.3490     1.8270     2.8310 ha         1 50K       0.156000
     46 H21          4.3510     1.5030     0.5960 ha         1 50K       0.118000
     47 H22          1.5300    -0.6150    -1.8990 hn         1 50K       0.317400
     48 H131        -0.3340    -0.6320     0.7000 hn         1 50K       0.224133
@<TRIPOS>BOND
     1     1     4 1   
     2     1    26 1   
     3     1    27 1   
     4     1    48 1   
     5     2     6 1   
     6     2     7 1   
     7     2    28 1   
     8     3    21 ar  
     9     3    24 ar  
    10     3    29 1   
    11     4    24 1   
    12     4    25 2   
    13     5     6 ar  
    14     5    22 1   
    15     5    23 ar  
    16     6    21 ar  
    17     7     8 1   
    18     7    22 2   
    19     8    18 ar  
    20     8    20 ar  
    21     9    19 ar  
    22     9    20 ar  
    23     9    30 1   
    24    10    12 1   
    25    10    13 1   
    26    10    16 1   
    27    10    17 1   
    28    11    15 1   
    29    11    16 1   
    30    11    31 1   
    31    11    32 1   
    32    12    14 1   
    33    12    33 1   
    34    12    34 1   
    35    13    35 1   
    36    14    15 1   
    37    14    36 1   
    38    14    37 1   
    39    15    38 1   
    40    15    39 1   
    41    16    40 1   
    42    16    41 1   
    43    17    18 ar  
    44    17    19 ar  
    45    19    42 1   
    46    20    43 1   
    47    21    44 1   
    48    22    45 1   
    49    23    24 ar  
    50    23    46 1   
    51    25    47 1   
@<TRIPOS>SUBSTRUCTURE
     1 50K         1 TEMP              0 ****  ****    0 ROOT
