@<TRIPOS>MOLECULE
50M
   45    48     1     0     0
SMALL
bcc


@<TRIPOS>ATOM
      1 C2           0.0000     0.0000     0.0000 c3         1 50M       0.099500
      2 C3           1.5300     0.0000     0.0000 c3         1 50M       0.181100
      3 C5           2.0420    -1.2520    -0.7180 c3         1 50M      -0.076100
      4 C7           1.5360     1.1130     2.1240 c3         1 50M       0.175100
      5 C13         -2.4920     2.0740     1.6800 ca         1 50M      -0.180000
      6 C15         -4.6200     1.7040     0.6560 ca         1 50M      -0.488200
      7 C16         -4.0150     0.9400    -0.3240 ca         1 50M       0.028000
      8 C17         -2.6440     0.7400    -0.3110 ca         1 50M      -0.161300
      9 C18         -2.0360    -0.1100    -1.4030 c3         1 50M       0.071900
     10 C19         -0.5200     0.0980    -1.4390 c3         1 50M      -0.217300
     11 C20          0.1170    -0.9700    -2.2790 c2         1 50M       0.686600
     12 C23          1.0450     0.5590    -3.7470 c          1 50M       0.727900
     13 C26         -0.2120     1.4610    -1.9910 c          1 50M       0.606500
     14 O6           1.9950     0.0000     1.3540 os         1 50M      -0.392600
     15 C9           2.0560     0.9900     3.5580 c3         1 50M       0.005900
     16 C10         -0.0040     1.1230     2.1390 c3         1 50M       0.088800
     17 N11         -0.4930     1.1540     0.7540 nh         1 50M      -0.315000
     18 C12         -1.8730     1.3080     0.6910 ca         1 50M       0.123600
     19 C14         -3.8560     2.2700     1.6610 ca         1 50M       0.025000
     20 O21         -0.0530    -2.2560    -1.9300 oh         1 50M      -0.563600
     21 N22          0.8270    -0.6960    -3.3310 ne         1 50M      -0.634100
     22 O24          1.7190     0.7470    -4.7430 o          1 50M      -0.606500
     23 N25          0.5370     1.6160    -3.0940 ns         1 50M      -0.177500
     24 O27         -0.6520     2.4420    -1.4290 o          1 50M      -0.602500
     25 N28         -6.0850     1.9150     0.6340 no         1 50M       1.056200
     26 O29         -6.7590     1.4120    -0.2470 o          1 50M      -0.456000
     27 O30         -6.6170     2.5890     1.4980 o          1 50M      -0.456000
     28 H2          -0.3630    -0.9130     0.4560 h1         1 50M       0.055700
     29 H3           1.8910     0.8870    -0.5060 h1         1 50M       0.018700
     30 H51          2.1490    -1.0440    -1.7750 hc         1 50M       0.041033
     31 H52          1.3370    -2.0620    -0.5790 hc         1 50M       0.041033
     32 H53          3.0040    -1.5360    -0.3070 hc         1 50M       0.041033
     33 H7           1.8980     2.0330     1.6800 h1         1 50M       0.022700
     34 H13         -1.8960     2.5180     2.4680 ha         1 50M       0.131000
     35 H16         -4.6160     0.4980    -1.1100 ha         1 50M       0.130000
     36 H182        -2.2510    -1.1530    -1.2050 hc         1 50M       0.035700
     37 H183        -2.4610     0.1760    -2.3570 hc         1 50M       0.035700
     38 H91          3.1390     0.9990     3.5510 hc         1 50M       0.014033
     39 H92          1.7050     0.0620     3.9910 hc         1 50M       0.014033
     40 H93          1.6920     1.8240     4.1470 hc         1 50M       0.014033
     41 H102        -0.3560     0.2160     2.6150 h1         1 50M       0.039700
     42 H103        -0.3440     2.0150     2.6510 h1         1 50M       0.039700
     43 H14         -4.3280     2.8690     2.4300 ha         1 50M       0.131000
     44 H21         -0.3270    -2.7520    -2.6830 ho         1 50M       0.434000
     45 H25          0.7210     2.5390    -3.4350 hn         1 50M       0.213500
@<TRIPOS>BOND
     1     1     2 1   
     2     1    10 1   
     3     1    17 1   
     4     1    28 1   
     5     2     3 1   
     6     2    14 1   
     7     2    29 1   
     8     3    30 1   
     9     3    31 1   
    10     3    32 1   
    11     4    14 1   
    12     4    15 1   
    13     4    16 1   
    14     4    33 1   
    15     5    18 ar  
    16     5    19 ar  
    17     5    34 1   
    18     6     7 ar  
    19     6    19 ar  
    20     6    25 1   
    21     7     8 ar  
    22     7    35 1   
    23     8     9 1   
    24     8    18 ar  
    25     9    10 1   
    26     9    36 1   
    27     9    37 1   
    28    10    11 1   
    29    10    13 1   
    30    11    20 1   
    31    11    21 2   
    32    12    21 1   
    33    12    22 2   
    34    12    23 1   
    35    13    23 1   
    36    13    24 2   
    37    15    38 1   
    38    15    39 1   
    39    15    40 1   
    40    16    17 1   
    41    16    41 1   
    42    16    42 1   
    43    17    18 1   
    44    19    43 1   
    45    20    44 1   
    46    23    45 1   
    47    25    26 1   
    48    25    27 1   
@<TRIPOS>SUBSTRUCTURE
     1 50M         1 TEMP              0 ****  ****    0 ROOT
