@<TRIPOS>MOLECULE
50O
   55    59     1     0     0
SMALL
bcc


@<TRIPOS>ATOM
      1 C13          0.0000     0.0000     0.0000 c          1 50O       0.644300
      2 C18          5.3510    -0.1070     5.3350 c3         1 50O       0.187100
      3 C17          5.7010    -0.0900    -2.0110 c3         1 50O       0.003600
      4 C16          1.2520     1.4550     3.8180 c3         1 50O       0.169100
      5 C21          0.1200     2.0090     4.6440 c3         1 50O       0.195400
      6 C24          0.3300     2.1060    -1.0690 cx         1 50O      -0.045300
      7 C12          7.2140     0.0000     0.0000 cc         1 50O       0.215700
      8 C27          1.1700     2.3960    -2.2580 cx         1 50O      -0.086150
      9 C1           3.1740     0.0190     1.8400 ca         1 50O       0.308800
     10 C2           3.6640    -0.0180     0.5250 ca         1 50O      -0.258100
     11 N3           1.7920     0.0990     1.7890 na         1 50O       0.329900
     12 N4           3.8810    -0.0100     2.9820 nb         1 50O      -0.698000
     13 C5           1.4100     0.0810     0.4510 cc         1 50O      -0.347300
     14 C6           5.8430    -0.0360     1.6230 ca         1 50O      -0.141900
     15 C7           5.0770    -0.0610     0.4570 ca         1 50O      -0.133200
     16 N8           7.1940     0.0000     1.3140 nd         1 50O      -0.499100
     17 C9           2.5330     0.0160    -0.3390 cd         1 50O      -0.086200
     18 C10          5.2140    -0.0140     2.8860 ca         1 50O       0.578200
     19 N11          5.9830    -0.0540    -0.5800 na         1 50O       0.324700
     20 N15          5.9400     0.0160     4.0170 nu         1 50O      -0.438900
     21 N19         -0.4240     0.8330    -0.9720 n          1 50O      -0.069800
     22 O20         -0.6450    -0.9630     0.3370 o          1 50O      -0.636100
     23 O22          0.6530     2.6370     5.8110 oh         1 50O      -0.591800
     24 O23          2.3290     1.1280     4.7000 oh         1 50O      -0.554800
     25 C25         -1.6200     0.6200    -1.8430 cx         1 50O      -0.045300
     26 C26         -0.1060     3.1390    -2.0420 cx         1 50O      -0.086150
     27 C28         -2.1050    -0.7620    -2.1180 cx         1 50O      -0.086150
     28 C29         -1.4450     0.0290    -3.2010 cx         1 50O      -0.086150
     29 H1           4.5640    -0.8510     5.3110 h1         1 50O       0.011700
     30 H2           4.9370     0.8470     5.6370 h1         1 50O       0.011700
     31 H3           6.1130    -0.4100     6.0440 h1         1 50O       0.011700
     32 H4           6.6270    -0.2180    -2.5580 h1         1 50O       0.021700
     33 H5           5.2310     0.8390    -2.3090 h1         1 50O       0.021700
     34 H6           5.0370    -0.9170    -2.2280 h1         1 50O       0.021700
     35 H7           1.5920     2.2430     3.1570 h1         1 50O      -0.003300
     36 H8          -0.4310     2.7370     4.0610 h1         1 50O      -0.008800
     37 H9          -0.5420     1.2030     4.9370 h1         1 50O      -0.008800
     38 H10          0.7200     2.5180    -0.1460 h1         1 50O       0.065700
     39 H11          8.1330     0.0400    -0.5730 h5         1 50O       0.016800
     40 H12          2.0770     2.9570    -2.0650 hc         1 50O       0.054950
     41 H13          1.1480     1.6470    -3.0410 hc         1 50O       0.054950
     42 H14          2.5480    -0.1190    -1.4130 ha         1 50O       0.121000
     43 H15          0.9690    -0.6480     3.5620 h1         1 50O       0.045700
     44 H16         -0.1190     0.3530     2.6030 h1         1 50O       0.045700
     45 H17          6.9320     0.1290     3.9450 hn         1 50O       0.294800
     46 H18         -0.0440     3.0560     6.2880 ho         1 50O       0.395000
     47 H19          2.6690     1.9170     5.0870 ho         1 50O       0.397000
     48 H20         -2.4110     1.3590    -1.7880 h1         1 50O       0.065700
     49 H21          0.0010     4.1660    -1.7130 hc         1 50O       0.054950
     50 H22         -0.9270     2.8560    -2.6890 hc         1 50O       0.054950
     51 H23         -1.5090    -1.5610    -1.6930 hc         1 50O       0.054950
     52 H24         -3.1790    -0.8720    -2.2080 hc         1 50O       0.054950
     53 H25         -2.1070     0.4140    -3.9670 hc         1 50O       0.054950
     54 H26         -0.4360    -0.2750    -3.4530 hc         1 50O       0.054950
     55 C14          0.9000     0.2470     2.9550 c3         1 50O      -0.033700
@<TRIPOS>BOND
     1     1    13 1   
     2     1    21 1   
     3     1    22 2   
     4     2    20 1   
     5     2    29 1   
     6     2    30 1   
     7     2    31 1   
     8     3    19 1   
     9     3    32 1   
    10     3    33 1   
    11     3    34 1   
    12     4     5 1   
    13     4    24 1   
    14     4    35 1   
    15     4    55 1   
    16     5    23 1   
    17     5    36 1   
    18     5    37 1   
    19     6     8 1   
    20     6    21 1   
    21     6    26 1   
    22     6    38 1   
    23     7    16 2   
    24     7    19 1   
    25     7    39 1   
    26     8    26 1   
    27     8    40 1   
    28     8    41 1   
    29     9    10 ar  
    30     9    11 1   
    31     9    12 ar  
    32    10    15 ar  
    33    10    17 1   
    34    11    13 1   
    35    11    55 1   
    36    12    18 ar  
    37    13    17 2   
    38    14    15 ar  
    39    14    16 1   
    40    14    18 ar  
    41    15    19 1   
    42    17    42 1   
    43    18    20 1   
    44    20    45 1   
    45    21    25 1   
    46    23    46 1   
    47    24    47 1   
    48    25    27 1   
    49    25    28 1   
    50    25    48 1   
    51    26    49 1   
    52    26    50 1   
    53    27    28 1   
    54    27    51 1   
    55    27    52 1   
    56    28    53 1   
    57    28    54 1   
    58    43    55 1   
    59    44    55 1   
@<TRIPOS>SUBSTRUCTURE
     1 50O         1 TEMP              0 ****  ****    0 ROOT
