@<TRIPOS>MOLECULE
molecule
   35    37     1     0     0
SMALL
bcc


@<TRIPOS>ATOM
      1 C4           0.0000     0.0000     0.0000 cc         1 50P      -0.261400
      2 C5           1.3670     0.0000     0.0000 cd         1 50P       0.199800
      3 C8           1.3480     0.0010     2.3790 cd         1 50P       0.210300
      4 C9           1.7620     0.0010     3.7090 cc         1 50P      -0.323300
      5 C10          0.5970     0.0010     4.5060 cc         1 50P       0.394200
      6 C13         -0.6950     0.0050     1.2210 c          1 50P       0.616500
      7 C3          -1.5930    -1.2780    -1.4060 c3         1 50P      -0.119600
      8 C1          -1.6800     1.2190    -1.3560 c3         1 50P      -0.119600
      9 C2          -0.7570    -0.0000    -1.3030 c3         1 50P      -0.096500
     10 N6           2.0440     0.0000     1.1950 na         1 50P      -0.588400
     11 N11         -0.4420     0.0040     3.7170 nd         1 50P      -0.434800
     12 N12         -0.0120     0.0050     2.3840 n          1 50P       0.092300
     13 O14         -1.9130     0.0100     1.2290 o          1 50P      -0.570500
     14 C15          3.1160     0.0010     4.1790 cg         1 50P       0.269800
     15 N16          4.1820     0.0030     4.5710 n1         1 50P      -0.378800
     16 C17          2.1120    -0.0000    -1.2760 ca         1 50P      -0.073800
     17 C18          3.0880     0.9680    -1.5190 ca         1 50P      -0.111500
     18 C19          3.7790     0.9620    -2.7130 ca         1 50P      -0.124500
     19 C20          3.5070    -0.0030    -3.6680 ca         1 50P      -0.111000
     20 C21          2.5410    -0.9640    -3.4340 ca         1 50P      -0.124500
     21 C22          1.8460    -0.9730    -2.2420 ca         1 50P      -0.111500
     22 H1           1.0330     0.0670     5.4950 h4         1 50P       0.087100
     23 H2          -2.0560    -1.3110    -2.3850 hc         1 50P       0.049867
     24 H3          -1.4770    -2.2220    -0.8880 hc         1 50P       0.049867
     25 H4          -2.3970    -1.0670    -0.7120 hc         1 50P       0.049867
     26 H5          -1.3600     1.9480    -0.6210 hc         1 50P       0.049867
     27 H6          -2.7100     1.0200    -1.0850 hc         1 50P       0.049867
     28 H8          -1.6890     2.0530    -2.0470 hc         1 50P       0.049867
     29 H9          -0.2830    -0.8820    -1.7180 hc         1 50P       0.189700
     30 H7           2.9920     0.2760     1.0320 hn         1 50P       0.476800
     31 H10          3.4340     1.8000    -0.9170 ha         1 50P       0.146500
     32 H11          4.6040     1.5870    -3.0310 ha         1 50P       0.141500
     33 H12          4.0130    -0.0840    -4.6220 ha         1 50P       0.138000
     34 H13          2.1300    -1.6560    -4.1590 ha         1 50P       0.141500
     35 H14          0.8720    -1.3890    -2.0130 ha         1 50P       0.146500
@<TRIPOS>BOND
     1    15    14 3
     2    14     4 1
     3     5     4 1
     4     5    11 2
     5     4     3 2
     6    11    12 1
     7     3    10 1
     8     3    12 1
     9    10     2 1
    10    12     6 1
    11     2    16 1
    12     2     1 2
    13     6    13 2
    14     6     1 1
    15    21    16 ar
    16    21    20 ar
    17    16    17 ar
    18    20    19 ar
    19     1     9 1
    20    17    18 ar
    21    19    18 ar
    22     7     9 1
    23     9     8 1
    24     5    22 1
    25     7    23 1
    26     7    24 1
    27     7    25 1
    28     8    26 1
    29     8    27 1
    30     8    28 1
    31     9    29 1
    32    10    30 1
    33    17    31 1
    34    18    32 1
    35    19    33 1
    36    20    34 1
    37    21    35 1
@<TRIPOS>SUBSTRUCTURE
     1 50P         1 TEMP              0 ****  ****    0 ROOT
