@<TRIPOS>MOLECULE
molecule
   25    26     1     0     0
SMALL
bcc


@<TRIPOS>ATOM
      1 C10          0.0000     0.0000     0.0000 ca         1 50Q      -0.081000
      2 C13         -0.0030    -0.0010     2.3990 ca         1 50Q       0.067400
      3 C15          1.3790    -0.0010     2.4020 ca         1 50Q      -0.195000
      4 C04          5.0420    -1.2220     4.2340 ca         1 50Q       0.129600
      5 C03          5.3720    -0.0250     4.8530 ca         1 50Q      -0.178000
      6 C02          5.0500     1.1800     4.2460 ca         1 50Q       0.129600
      7 O01          5.3720     2.3530     4.8530 oh         1 50Q      -0.514100
      8 C19          4.3990     1.1890     3.0220 ca         1 50Q      -0.173000
      9 C09          1.3810     0.0000     0.0000 ca         1 50Q      -0.147000
     10 C11         -0.6930     0.0000     1.1980 ca         1 50Q      -0.004600
     11 C16          2.0740     0.0000     1.2020 ca         1 50Q       0.146100
     12 Cl6         -2.4290     0.0000     1.1950 cl         1 50Q      -0.087400
     13 O17          3.4330     0.0010     1.2030 os         1 50Q      -0.244200
     14 Cl5         -0.8750    -0.0010     3.9000 cl         1 50Q      -0.078400
     15 C18          4.0710    -0.0080     2.4030 ca         1 50Q       0.118100
     16 C06          4.3970    -1.2130     3.0070 ca         1 50Q      -0.173000
     17 H10         -0.5410     0.0000    -0.9380 ha         1 50Q       0.155000
     18 H09          1.9230     0.0000    -0.9380 ha         1 50Q       0.154000
     19 H15          1.9190    -0.0010     3.3410 ha         1 50Q       0.166000
     20 H01          6.2330     2.6220     4.5790 ho         1 50Q       0.424500
     21 H03          5.8470    -0.0310     5.8260 ha         1 50Q       0.157000
     22 H19          4.1480     2.1310     2.5480 ha         1 50Q       0.158500
     23 H05          6.2190    -2.6730     4.5520 ho         1 50Q       0.424500
     24 H06          4.1400    -2.1480     2.5240 ha         1 50Q       0.158500
     25 O05          5.3580    -2.4020     4.8280 oh         1 50Q      -0.514100
@<TRIPOS>BOND
     1     1     9 ar
     2     1    10 ar
     3     2     3 ar
     4     2    10 ar
     5     2    14 1
     6     3    11 ar
     7     7     6 1
     8     6     5 ar
     9     6     8 ar
    10     5     4 ar
    11     4    25 1
    12     4    16 ar
    13    16    15 ar
    14     9    11 ar
    15    10    12 1
    16    11    13 1
    17    13    15 1
    18    15     8 ar
    19     1    17 1
    20     9    18 1
    21     3    19 1
    22     7    20 1
    23     5    21 1
    24     8    22 1
    25    25    23 1
    26    16    24 1
@<TRIPOS>SUBSTRUCTURE
     1 50Q         1 TEMP              0 ****  ****    0 ROOT
