@<TRIPOS>MOLECULE
50Q
   25    24     1     0     0
SMALL
bcc


@<TRIPOS>ATOM
      1 C10        -1.0740   -0.0820    0.9610 c2        1 50Q     -0.169000
      2 C13        -0.5360   -0.2000    3.3630 c2        1 50Q     -0.340000
      3 C15         0.7330    0.0970    3.6230 c1        1 50Q      0.241000
      4 C04         5.1590   -1.0350    4.3500 c2        1 50Q      0.017000
      5 C03         4.6440    0.1310    4.8310 c2        1 50Q     -0.142000
      6 C02         3.9800    1.0670    3.8860 c3        1 50Q      0.000000
      7 O01         4.1080    2.3990    4.3510 oh        1 50Q     -0.296000
      8 C19         4.2340    0.8810    2.4610 c1        1 50Q     -0.151000
      9 C09         4.2640    0.0830   -1.4900 c1        1 50Q      0.168000
     10 C11        -1.2620    0.3400    2.2140 c2        1 50Q     -0.059000
     11 C16         4.3780    0.2480   -0.1800 c2        1 50Q     -0.333000
     12 CL6        -2.3940    1.5540    2.5950 cl        1 50Q      0.001000
     13 O17         4.8140   -0.7290    0.7060 os        1 50Q     -0.122000
     14 CL5        -1.3950   -1.2410    4.4000 cl        1 50Q      0.052000
     15 C18         4.7190   -0.3910    2.0550 c2        1 50Q     -0.022000
     16 C06         5.2000   -1.3280    2.9380 c2        1 50Q     -0.089000
     17 H10        -0.3480   -0.8700    0.7180 ha        1 50Q      0.142000
     18 H09        -1.6330    0.3290    0.1080 ha        1 50Q      0.142000
     19 H15         4.1250    1.2450    0.2580 h4        1 50Q      0.227000
     20 H01         4.2150    2.9600    3.5700 ho        1 50Q      0.227000
     21 H03         4.6510    0.3890    5.8980 ha        1 50Q      0.174000
     22 H19         2.8430    0.8030    3.9260 h1        1 50Q      0.202000
     23 H05         6.1760   -2.6020    4.7750 ho        1 50Q      0.220000
     24 H06         5.6380   -2.2780    2.5950 ha        1 50Q      0.157000
     25 O05         5.6510   -1.9490    5.2610 oh        1 50Q     -0.247000
@<TRIPOS>BOND
     1    1   10 1   
     2    1   17 1   
     3    1   18 1   
     4    2    3 1   
     5    2   10 1   
     6    2   14 1   
     7    4    5 1   
     8    4   16 1   
     9    4   25 1   
    10    5    6 1   
    11    5   21 1   
    12    6    7 1   
    13    6    8 1   
    14    6   22 1   
    15    7   20 1   
    16    8   15 1   
    17    9   11 1   
    18   10   12 1   
    19   11   13 1   
    20   11   19 1   
    21   13   15 1   
    22   15   16 1   
    23   16   24 1   
    24   23   25 1   
@<TRIPOS>SUBSTRUCTURE
     1 50Q         1 TEMP              0 ****  ****    0 ROOT
