@<TRIPOS>MOLECULE
molecule
   32    34     1     0     0
SMALL
bcc


@<TRIPOS>ATOM
      1 C5           0.0000     0.0000     0.0000 cc         1 50R      -0.109600
      2 C6           1.3390     0.0000     0.0000 cd         1 50R      -0.044200
      3 C11          1.4640     0.0010     3.6300 ca         1 50R       0.419200
      4 C7           1.9420     0.0000     1.2630 ca         1 50R      -0.083800
      5 C8           3.3190    -0.0000     1.6170 ca         1 50R       0.062800
      6 C9           3.6680    -0.0000     2.9490 ca         1 50R       0.322200
      7 C12          1.0090     0.0010     2.3100 ca         1 50R      -0.105400
      8 N2          -2.1800    -0.0070    -1.1000 ns         1 50R      -0.582900
      9 C3          -0.8360    -0.0010    -1.2090 c          1 50R       0.698300
     10 C1          -3.0140    -0.0080    -2.3040 c3         1 50R       0.105300
     11 O4          -0.3160     0.0030    -2.3090 o          1 50R      -0.592100
     12 N10          2.7500    -0.0000     3.9000 nb         1 50R      -0.637000
     13 S13         -0.6180    -0.0060     1.6420 ss         1 50R      -0.077500
     14 O14          4.2770    -0.0010     0.6550 os         1 50R      -0.237200
     15 C15          5.5770    -0.0090     1.0480 ca         1 50R       0.102100
     16 C16          6.2360    -1.2140     1.2440 ca         1 50R      -0.136000
     17 C17          7.5580    -1.2200     1.6440 ca         1 50R      -0.088500
     18 C18          8.2250    -0.0260     1.8510 ca         1 50R       0.053900
     19 C19          7.5700     1.1770     1.6570 ca         1 50R      -0.088500
     20 C20          6.2490     1.1880     1.2500 ca         1 50R      -0.136000
     21 I21         10.2290    -0.0390     2.4590 i          1 50R      -0.155900
     22 H1           1.9170     0.0000    -0.9160 ha         1 50R       0.184000
     23 H2           0.7480     0.0010     4.4420 h4         1 50R       0.032100
     24 H3           4.7160    -0.0010     3.2230 h4         1 50R       0.039100
     25 H4          -2.6080    -0.0100    -0.1950 hn         1 50R       0.314500
     26 H5          -2.7960    -0.8900    -2.8940 h1         1 50R       0.044367
     27 H6          -4.0590    -0.0130    -2.0200 h1         1 50R       0.044367
     28 H7          -2.8030     0.8790    -2.8900 h1         1 50R       0.044367
     29 H8           5.7150    -2.1500     1.0820 ha         1 50R       0.153000
     30 H9           8.0730    -2.1610     1.7960 ha         1 50R       0.150000
     31 H10          8.0940     2.1110     1.8170 ha         1 50R       0.150000
     32 H11          5.7370     2.1300     1.0980 ha         1 50R       0.153000
@<TRIPOS>BOND
     1    17    16 ar  
     2    17    18 ar  
     3    21    18 1   
     4    16    15 ar  
     5    18    19 ar  
     6    15    14 1   
     7    15    20 ar  
     8    14     5 1   
     9    19    20 ar  
    10     6     5 ar  
    11     6    12 ar  
    12     5     4 ar  
    13    12     3 ar  
    14     4     2 1   
    15     4     7 ar  
    16     2     1 2   
    17     3     7 ar  
    18     7    13 1   
    19     1     9 1   
    20     1    13 1   
    21     8     9 1   
    22     8    10 1   
    23     9    11 2   
    24     2    22 1   
    25     3    23 1   
    26     6    24 1   
    27     8    25 1   
    28    10    26 1   
    29    10    27 1   
    30    10    28 1   
    31    16    29 1   
    32    17    30 1   
    33    19    31 1   
    34    20    32 1   
@<TRIPOS>SUBSTRUCTURE
     1 50R         1 TEMP              0 ****  ****    0 ROOT
