@<TRIPOS>MOLECULE
50R
   32    34     1     0     0
SMALL
bcc


@<TRIPOS>ATOM
      1 C5           0.0000     0.0000     0.0000 cc         1 50R      -0.081600
      2 C6           1.3390     0.0000     0.0000 cd         1 50R      -0.001200
      3 C11          1.4640     0.0010     3.6300 ca         1 50R       0.404200
      4 C7           1.9420     0.0000     1.2630 ca         1 50R      -0.102800
      5 C8           3.3190    -0.0000     1.6170 ca         1 50R       0.082800
      6 C9           3.6680    -0.0000     2.9490 ca         1 50R       0.288200
      7 C12          1.0090     0.0010     2.3100 ca         1 50R      -0.052400
      8 N2          -2.1800    -0.0070    -1.1000 ns         1 50R      -0.187900
      9 C3          -0.8360    -0.0010    -1.2090 c          1 50R       0.624300
     10 C1          -3.0140    -0.0080    -2.3040 c3         1 50R       0.087300
     11 O4          -0.3160     0.0030    -2.3090 o          1 50R      -0.638100
     12 N10          2.7500    -0.0000     3.9000 nb         1 50R      -0.522000
     13 S13         -0.6180    -0.0060     1.6420 ss         1 50R      -0.193500
     14 O14          4.2770    -0.0010     0.6550 os         1 50R      -0.205200
     15 C15          5.5770    -0.0090     1.0480 ca         1 50R       0.092100
     16 C16          6.2360    -1.2140     1.2440 ca         1 50R      -0.108000
     17 C17          7.5580    -1.2200     1.6440 ca         1 50R      -0.070000
     18 C18          8.2250    -0.0260     1.8510 ca         1 50R       0.192900
     19 C19          7.5700     1.1770     1.6570 ca         1 50R      -0.070000
     20 C20          6.2490     1.1880     1.2500 ca         1 50R      -0.108000
     21 I21         10.2290    -0.0390     2.4590 i          1 50R      -0.274900
     22 H1           1.9170     0.0000    -0.9160 ha         1 50R       0.148000
     23 H2           0.7480     0.0010     4.4420 h4         1 50R      -0.009900
     24 H3           4.7160    -0.0010     3.2230 h4         1 50R       0.004100
     25 H4          -2.6080    -0.0100    -0.1950 hn         1 50R       0.178500
     26 H5          -2.7960    -0.8900    -2.8940 h1         1 50R       0.010700
     27 H6          -4.0590    -0.0130    -2.0200 h1         1 50R       0.010700
     28 H7          -2.8030     0.8790    -2.8900 h1         1 50R       0.010700
     29 H8           5.7150    -2.1500     1.0820 ha         1 50R       0.122000
     30 H9           8.0730    -2.1610     1.7960 ha         1 50R       0.122000
     31 H10          8.0940     2.1110     1.8170 ha         1 50R       0.122000
     32 H11          5.7370     2.1300     1.0980 ha         1 50R       0.122000
@<TRIPOS>BOND
     1     1     2 2   
     2     1     9 1   
     3     1    13 1   
     4     2     4 1   
     5     2    22 1   
     6     3     7 ar  
     7     3    12 ar  
     8     3    23 1   
     9     4     5 ar  
    10     4     7 ar  
    11     5     6 ar  
    12     5    14 1   
    13     6    12 ar  
    14     6    24 1   
    15     7    13 1   
    16     8     9 1   
    17     8    10 1   
    18     8    25 1   
    19     9    11 2   
    20    10    26 1   
    21    10    27 1   
    22    10    28 1   
    23    14    15 1   
    24    15    16 ar  
    25    15    20 ar  
    26    16    17 ar  
    27    16    29 1   
    28    17    18 ar  
    29    17    30 1   
    30    18    19 ar  
    31    18    21 1   
    32    19    20 ar  
    33    19    31 1   
    34    20    32 1   
@<TRIPOS>SUBSTRUCTURE
     1 50R         1 TEMP              0 ****  ****    0 ROOT
