@<TRIPOS>MOLECULE
50V
   60    65     1     0     0
SMALL
bcc


@<TRIPOS>ATOM
      1 N14          0.0000     0.0000     0.0000 na         1 50V       0.361900
      2 C13          1.3840     0.0000     0.0000 cc         1 50V      -0.370300
      3 C18         -0.8520    -0.0050    -1.1920 c3         1 50V      -0.116700
      4 C15          2.2370    -0.0000    -1.1940 c          1 50V       0.697300
      5 C19         -2.3090    -0.2170    -0.7760 c3         1 50V      -0.060100
      6 C20          3.5610     2.0450    -1.2530 cx         1 50V       0.003200
      7 C21          1.8280     1.5410    -3.0370 cx         1 50V       0.003200
      8 C22          4.1870     1.6430     0.0840 cx         1 50V      -0.128650
      9 C23          4.9960     1.5180    -1.2080 cx         1 50V      -0.128650
     10 C24          0.5250     2.3290    -2.8880 cx         1 50V      -0.128650
     11 C11          2.8180    -0.0000     4.5800 c3         1 50V      -0.006400
     12 C12          1.8260     0.0000     1.2880 cd         1 50V      -0.105200
     13 C27         -4.1640    -0.0110     1.3320 cc         1 50V      -0.426300
     14 C1           0.6940     0.0000     2.1290 ca         1 50V      -0.247100
     15 C2          -0.4430     0.0010     1.2990 ca         1 50V       0.291800
     16 N3          -1.6640    -0.0030     1.8300 nb         1 50V      -0.682000
     17 C4          -1.8680    -0.0020     3.1340 ca         1 50V       0.579200
     18 C5          -0.7870     0.0040     4.0370 ca         1 50V      -0.126900
     19 C6           0.5190     0.0000     3.5280 ca         1 50V      -0.162200
     20 N7          -3.1640    -0.0050     3.6220 nu         1 50V      -0.340600
     21 N8          -0.6840     0.0060     5.3880 nc         1 50V      -0.485100
     22 C9           0.5720     0.0120     5.7290 cd         1 50V       0.209700
     23 N10          1.3530    -0.0000     4.6130 na         1 50V       0.339700
     24 N16          2.5330     1.1610    -1.8100 n          1 50V      -0.191800
     25 O17          2.6760    -1.0490    -1.6280 o          1 50V      -0.537100
     26 C25          0.4860     0.8620    -3.3190 cx         1 50V      -0.128650
     27 C26         -4.2470    -0.0110     2.7340 cc         1 50V       0.460200
     28 C28         -5.4240    -0.0170     0.8420 cd         1 50V      -0.228600
     29 N29         -6.2760    -0.0230     1.8890 na         1 50V       0.496400
     30 N30         -5.5170    -0.0140     3.0670 nd         1 50V      -0.702800
     31 C31         -5.8100    -0.0130    -0.6150 c3         1 50V       0.094200
     32 C32         -7.7390    -0.0300     1.8090 c3         1 50V       0.022600
     33 H1          -0.5450    -0.8080    -1.8520 h1         1 50V       0.062200
     34 H2          -0.7580     0.9430    -1.7070 h1         1 50V       0.062200
     35 H3          -2.7180     0.7150    -0.4050 hc         1 50V       0.045033
     36 H4          -2.3560    -0.9680     0.0050 hc         1 50V       0.045033
     37 H5          -2.8840    -0.5500    -1.6310 hc         1 50V       0.045033
     38 H6           3.4740     3.1130    -1.4100 h1         1 50V       0.064700
     39 H7           2.4070     1.7850    -3.9190 h1         1 50V       0.064700
     40 H8           4.4670     2.4640     0.7340 hc         1 50V       0.062450
     41 H9           3.8310     0.7110     0.5060 hc         1 50V       0.062450
     42 H10          5.7720     2.2610    -1.3490 hc         1 50V       0.062450
     43 H11          5.1350     0.5090    -1.5770 hc         1 50V       0.062450
     44 H12          0.3240     3.0510    -3.6700 hc         1 50V       0.062450
     45 H13          0.2110     2.5250    -1.8700 hc         1 50V       0.062450
     46 H14          3.2020    -0.0620     5.5910 h1         1 50V       0.024367
     47 H15          3.1670    -0.8520     4.0090 h1         1 50V       0.024367
     48 H16          3.1690     0.9140     4.1160 h1         1 50V       0.024367
     49 H17          2.8600    -0.0000     1.6090 ha         1 50V       0.133000
     50 H18         -3.2530    -0.0050     0.7470 ha         1 50V       0.234000
     51 H19         -3.3270    -0.0250     4.6100 hn         1 50V       0.301800
     52 H20          0.9410     0.0240     6.7470 h5         1 50V       0.031800
     53 H21          0.1490     0.1610    -2.5640 hc         1 50V       0.062450
     54 H22          0.2620     0.6870    -4.3640 hc         1 50V       0.062450
     55 H23         -6.8860     0.0840    -0.7030 hc         1 50V       0.009033
     56 H24         -5.4920    -0.9400    -1.0750 hc         1 50V       0.009033
     57 H25         -5.3310     0.8210    -1.1130 hc         1 50V       0.009033
     58 H26         -8.0660    -0.8920     1.2410 h1         1 50V       0.018700
     59 H27         -8.0770     0.8750     1.3190 h1         1 50V       0.018700
     60 H28         -8.1550    -0.0760     2.8080 h1         1 50V       0.018700
@<TRIPOS>BOND
     1     1     2 1   
     2     1     3 1   
     3     1    15 1   
     4     2     4 1   
     5     2    12 2   
     6     3     5 1   
     7     3    33 1   
     8     3    34 1   
     9     4    24 1   
    10     4    25 2   
    11     5    35 1   
    12     5    36 1   
    13     5    37 1   
    14     6     8 1   
    15     6     9 1   
    16     6    24 1   
    17     6    38 1   
    18     7    10 1   
    19     7    24 1   
    20     7    26 1   
    21     7    39 1   
    22     8     9 1   
    23     8    40 1   
    24     8    41 1   
    25     9    42 1   
    26     9    43 1   
    27    10    26 1   
    28    10    44 1   
    29    10    45 1   
    30    11    23 1   
    31    11    46 1   
    32    11    47 1   
    33    11    48 1   
    34    12    14 1   
    35    12    49 1   
    36    13    27 1   
    37    13    28 2   
    38    13    50 1   
    39    14    15 ar  
    40    14    19 ar  
    41    15    16 ar  
    42    16    17 ar  
    43    17    18 ar  
    44    17    20 1   
    45    18    19 ar  
    46    18    21 1   
    47    19    23 1   
    48    20    27 1   
    49    20    51 1   
    50    21    22 2   
    51    22    23 1   
    52    22    52 1   
    53    26    53 1   
    54    26    54 1   
    55    27    30 2   
    56    28    29 1   
    57    28    31 1   
    58    29    30 1   
    59    29    32 1   
    60    31    55 1   
    61    31    56 1   
    62    31    57 1   
    63    32    58 1   
    64    32    59 1   
    65    32    60 1   
@<TRIPOS>SUBSTRUCTURE
     1 50V         1 TEMP              0 ****  ****    0 ROOT
