@<TRIPOS>MOLECULE
molecule
   60    65     1     0     0
SMALL
bcc


@<TRIPOS>ATOM
      1 N14          0.0000     0.0000     0.0000 na         1 50V      -0.134100
      2 C13          1.3840     0.0000     0.0000 cc         1 50V      -0.164300
      3 C18         -0.8520    -0.0050    -1.1920 c3         1 50V       0.016300
      4 C15          2.2370    -0.0000    -1.1940 c          1 50V       0.749300
      5 C19         -2.3090    -0.2170    -0.7760 c3         1 50V      -0.126100
      6 C20          3.5610     2.0450    -1.2530 cx         1 50V       0.083700
      7 C21          1.8280     1.5410    -3.0370 cx         1 50V       0.083700
      8 C22          4.1870     1.6430     0.0840 cx         1 50V      -0.172400
      9 C23          4.9960     1.5180    -1.2080 cx         1 50V      -0.172400
     10 C24          0.5250     2.3290    -2.8880 cx         1 50V      -0.172400
     11 C11          2.8180    -0.0000     4.5800 c3         1 50V       0.037600
     12 C12          1.8260     0.0000     1.2880 cd         1 50V      -0.132200
     13 C27         -4.1640    -0.0110     1.3320 cc         1 50V      -0.386300
     14 C1           0.6940     0.0000     2.1290 ca         1 50V      -0.259100
     15 C2          -0.4430     0.0010     1.2990 ca         1 50V       0.518800
     16 N3          -1.6640    -0.0030     1.8300 nb         1 50V      -0.800000
     17 C4          -1.8680    -0.0020     3.1340 ca         1 50V       0.798200
     18 C5          -0.7870     0.0040     4.0370 ca         1 50V      -0.100900
     19 C6           0.5190     0.0000     3.5280 ca         1 50V       0.002800
     20 N7          -3.1640    -0.0050     3.6220 nu         1 50V      -0.829600
     21 N8          -0.6840     0.0060     5.3880 nd         1 50V      -0.579100
     22 C9           0.5720     0.0120     5.7290 cc         1 50V       0.393700
     23 N10          1.3530    -0.0000     4.6130 na         1 50V      -0.133300
     24 N16          2.5330     1.1610    -1.8100 n          1 50V      -0.523800
     25 O17          2.6760    -1.0490    -1.6280 o          1 50V      -0.504100
     26 C25          0.4860     0.8620    -3.3190 cx         1 50V      -0.172400
     27 C26         -4.2470    -0.0110     2.7340 cc         1 50V       0.586200
     28 C28         -5.4240    -0.0170     0.8420 cd         1 50V      -0.074600
     29 N29         -6.2760    -0.0230     1.8890 na         1 50V       0.065400
     30 N30         -5.5170    -0.0140     3.0670 nd         1 50V      -0.563800
     31 C31         -5.8100    -0.0130    -0.6150 c3         1 50V      -0.025800
     32 C32         -7.7390    -0.0300     1.8090 c3         1 50V       0.068600
     33 H1          -0.5450    -0.8080    -1.8520 h1         1 50V       0.072700
     34 H2          -0.7580     0.9430    -1.7070 h1         1 50V       0.072700
     35 H3          -2.7180     0.7150    -0.4050 hc         1 50V       0.068033
     36 H4          -2.3560    -0.9680     0.0050 hc         1 50V       0.068033
     37 H5          -2.8840    -0.5500    -1.6310 hc         1 50V       0.068033
     38 H6           3.4740     3.1130    -1.4100 h1         1 50V       0.094700
     39 H7           2.4070     1.7850    -3.9190 h1         1 50V       0.094700
     40 H8           4.4670     2.4640     0.7340 hc         1 50V       0.086200
     41 H9           3.8310     0.7110     0.5060 hc         1 50V       0.086200
     42 H10          5.7720     2.2610    -1.3490 hc         1 50V       0.086200
     43 H11          5.1350     0.5090    -1.5770 hc         1 50V       0.086200
     44 H12          0.3240     3.0510    -3.6700 hc         1 50V       0.086200
     45 H13          0.2110     2.5250    -1.8700 hc         1 50V       0.086200
     46 H14          3.2020    -0.0620     5.5910 h1         1 50V       0.055367
     47 H15          3.1670    -0.8520     4.0090 h1         1 50V       0.055367
     48 H16          3.1690     0.9140     4.1160 h1         1 50V       0.055367
     49 H17          2.8600    -0.0000     1.6090 ha         1 50V       0.151000
     50 H18         -3.2530    -0.0050     0.7470 ha         1 50V       0.226000
     51 H19         -3.3270    -0.0250     4.6100 hn         1 50V       0.481800
     52 H20          0.9410     0.0240     6.7470 h5         1 50V       0.075800
     53 H21          0.1490     0.1610    -2.5640 hc         1 50V       0.086200
     54 H22          0.2620     0.6870    -4.3640 hc         1 50V       0.086200
     55 H23         -6.8860     0.0840    -0.7030 hc         1 50V       0.047367
     56 H24         -5.4920    -0.9400    -1.0750 hc         1 50V       0.047367
     57 H25         -5.3310     0.8210    -1.1130 hc         1 50V       0.047367
     58 H26         -8.0660    -0.8920     1.2410 h1         1 50V       0.050700
     59 H27         -8.0770     0.8750     1.3190 h1         1 50V       0.050700
     60 H28         -8.1550    -0.0760     2.8080 h1         1 50V       0.050700
@<TRIPOS>BOND
     1    26     7 1   
     2    26    10 1   
     3     8     6 1   
     4     8     9 1   
     5     7    10 1   
     6     7    24 1   
     7     6     9 1   
     8     6    24 1   
     9    24     4 1   
    10    11    23 1   
    11     4     2 1   
    12     4    25 2   
    13    12     2 2   
    14    12    14 1   
    15     2     1 1   
    16    23    19 1   
    17    23    22 1   
    18    14    19 ar  
    19    14    15 ar  
    20    19    18 ar  
    21    22    21 2   
    22     1    15 1   
    23     1     3 1   
    24    15    16 ar  
    25     5     3 1   
    26    18    21 1   
    27    18    17 ar  
    28    16    17 ar  
    29    17    20 1   
    30    20    27 1   
    31    27    30 2   
    32    27    13 1   
    33    30    29 1   
    34    13    28 2   
    35    29    32 1   
    36    29    28 1   
    37    28    31 1   
    38     3    33 1   
    39     3    34 1   
    40     5    35 1   
    41     5    36 1   
    42     5    37 1   
    43     6    38 1   
    44     7    39 1   
    45     8    40 1   
    46     8    41 1   
    47     9    42 1   
    48     9    43 1   
    49    10    44 1   
    50    10    45 1   
    51    11    46 1   
    52    11    47 1   
    53    11    48 1   
    54    12    49 1   
    55    13    50 1   
    56    20    51 1   
    57    22    52 1   
    58    26    53 1   
    59    26    54 1   
    60    31    55 1   
    61    31    56 1   
    62    31    57 1   
    63    32    58 1   
    64    32    59 1   
    65    32    60 1   
@<TRIPOS>SUBSTRUCTURE
     1 50V         1 TEMP              0 ****  ****    0 ROOT
