@<TRIPOS>MOLECULE
molecule
   59    64     1     0     0
SMALL
bcc


@<TRIPOS>ATOM
      1 C13          0.0000     0.0000     0.0000 c          1 50W       0.707300
      2 C17          1.3820    -1.4900    -3.0150 c3         1 50W      -0.115100
      3 C16          1.6590    -0.0800    -2.5750 c3         1 50W       0.045300
      4 C20         -2.1000    -0.4340     1.1250 cx         1 50W       0.049200
      5 C21         -0.1040    -1.8990     1.6720 cx         1 50W       0.049200
      6 C22          0.5660    -3.0090     0.9410 cx         1 50W      -0.133400
      7 C23         -0.7830    -3.2180     1.5430 cx         1 50W      -0.133400
      8 C24         -2.5660    -0.0260     2.4810 cx         1 50W      -0.133400
      9 C11          1.4800     0.0000     0.0000 cc         1 50W      -0.128300
     10 C1           3.6710    -0.0400     0.4990 ca         1 50W      -0.242100
     11 C2           3.5300    -0.0620    -0.8960 ca         1 50W       0.487800
     12 N3           4.4950    -0.0910    -1.8260 nb         1 50W      -0.778000
     13 C4           5.7640    -0.0760    -1.3980 ca         1 50W       0.755200
     14 C5           6.0550    -0.1080    -0.0100 ca         1 50W      -0.112900
     15 C6           5.0230    -0.0740     0.9230 ca         1 50W       0.020800
     16 N7           7.2810    -0.2130     0.6290 nd         1 50W      -0.553100
     17 C8           6.9680    -0.2560     1.9020 cc         1 50W       0.388700
     18 N9           5.6350    -0.1660     2.1550 na         1 50W      -0.138300
     19 C10          2.3600     0.0000     1.0450 cd         1 50W      -0.122200
     20 N12          2.1880    -0.0340    -1.1960 na         1 50W      -0.137100
     21 C14          5.0070    -0.1870     3.4730 c3         1 50W       0.044600
     22 N15          6.7810     0.1070    -2.3270 nu         1 50W      -0.816600
     23 N18         -0.6630    -0.7370     0.9220 n          1 50W      -0.438800
     24 O19         -0.5830     0.7420    -0.7880 o          1 50W      -0.598100
     25 C25         -2.5180     0.9740     1.3720 cx         1 50W      -0.133400
     26 C26          6.6070     0.2890    -3.6690 cc         1 50W       0.671300
     27 N27          7.6370     0.5110    -4.4400 nd         1 50W      -0.718000
     28 S28          5.0670     0.4100    -4.4520 ss         1 50W      -0.114300
     29 C29          7.2260     0.8140    -5.7220 cd         1 50W       0.377600
     30 C30          5.8780     0.8150    -5.9310 cc         1 50W      -0.207700
     31 C31          8.2790     1.0530    -6.7540 c3         1 50W      -0.117400
     32 C32          5.0800     1.1970    -7.1480 c3         1 50W       0.000200
     33 H1           2.0250    -2.1710    -2.4710 hc         1 50W       0.046367
     34 H2           0.3460    -1.7340    -2.8150 hc         1 50W       0.046367
     35 H3           1.5760    -1.5810    -4.0770 hc         1 50W       0.046367
     36 H4           0.7400     0.4910    -2.6190 h1         1 50W       0.081700
     37 H5           2.3840     0.3640    -3.2460 h1         1 50W       0.081700
     38 H6          -2.8220    -1.0190     0.5680 h1         1 50W       0.084200
     39 H7           0.2970    -1.7110     2.6610 h1         1 50W       0.084200
     40 H8           1.3890    -3.4820     1.4630 hc         1 50W       0.082575
     41 H9           0.5870    -2.9130    -0.1370 hc         1 50W       0.082575
     42 H10         -1.6070    -3.2530     0.8410 hc         1 50W       0.082575
     43 H11         -0.8050    -3.8220     2.4420 hc         1 50W       0.082575
     44 H12         -1.7920     0.0710     3.2320 hc         1 50W       0.082575
     45 H13         -3.5550    -0.3700     2.7580 hc         1 50W       0.082575
     46 H14          7.7100    -0.3560     2.6860 h5         1 50W       0.064800
     47 H15          2.1100     0.1520     2.0880 ha         1 50W       0.150000
     48 H16          5.7740    -0.2090     4.2380 h1         1 50W       0.055367
     49 H17          4.3820    -1.0670     3.5620 h1         1 50W       0.055367
     50 H18          4.3990     0.7010     3.5970 h1         1 50W       0.055367
     51 H19          7.7210     0.1070    -1.9830 hn         1 50W       0.481800
     52 H20         -3.4780     1.2570     0.9560 hc         1 50W       0.082575
     53 H21         -1.7140     1.6980     1.4300 hc         1 50W       0.082575
     54 H22          8.1700     2.0530    -7.1560 hc         1 50W       0.048700
     55 H23          9.2580     0.9500    -6.3010 hc         1 50W       0.048700
     56 H24          8.1730     0.3300    -7.5530 hc         1 50W       0.048700
     57 H25          5.3910     0.5890    -7.9890 hc         1 50W       0.043367
     58 H26          4.0270     1.0350    -6.9550 hc         1 50W       0.043367
     59 H27          5.2490     2.2430    -7.3770 hc         1 50W       0.043367
@<TRIPOS>BOND
     1     7     5 1   
     2     7     6 1   
     3     8     4 1   
     4     8    25 1   
     5     5     6 1   
     6     5    23 1   
     7     4    25 1   
     8     4    23 1   
     9    23     1 1   
    10    21    18 1   
    11     1     9 1   
    12     1    24 2   
    13    19     9 2   
    14    19    10 1   
    15     9    20 1   
    16    18    17 1   
    17    18    15 1   
    18    10    15 ar  
    19    10    11 ar  
    20    17    16 2   
    21    15    14 ar  
    22    20    11 1   
    23    20     3 1   
    24    11    12 ar  
    25     2     3 1   
    26    16    14 1   
    27    14    13 ar  
    28    12    13 ar  
    29    13    22 1   
    30    22    26 1   
    31    26    28 1   
    32    26    27 2   
    33    28    30 1   
    34    27    29 1   
    35    30    29 2   
    36    30    32 1   
    37    29    31 1   
    38     2    33 1   
    39     2    34 1   
    40     2    35 1   
    41     3    36 1   
    42     3    37 1   
    43     4    38 1   
    44     5    39 1   
    45     6    40 1   
    46     6    41 1   
    47     7    42 1   
    48     7    43 1   
    49     8    44 1   
    50     8    45 1   
    51    17    46 1   
    52    19    47 1   
    53    21    48 1   
    54    21    49 1   
    55    21    50 1   
    56    22    51 1   
    57    25    52 1   
    58    25    53 1   
    59    31    54 1   
    60    31    55 1   
    61    31    56 1   
    62    32    57 1   
    63    32    58 1   
    64    32    59 1   
@<TRIPOS>SUBSTRUCTURE
     1 50W         1 TEMP              0 ****  ****    0 ROOT
