@<TRIPOS>MOLECULE
molecule
   67    71     1     0     0
SMALL
bcc


@<TRIPOS>ATOM
      1 N1           0.0000     0.0000     0.0000 n          1 50X      -0.500800
      2 C2           1.4700     0.0000     0.0000 c3         1 50X       0.166000
      3 C3           1.9290     0.0000     1.4740 c3         1 50X      -0.088400
      4 C4           0.6950    -0.5710     2.2210 c3         1 50X      -0.096400
      5 C5          -0.4730     0.0260     1.3970 c3         1 50X       0.089000
      6 C6         -10.4820    -4.3410     1.8160 ca         1 50X      -0.070200
      7 C7         -11.8340    -4.2010     2.1730 ca         1 50X       0.084400
      8 C8         -12.8280    -4.5270     1.2460 ca         1 50X      -0.055000
      9 C9         -12.4790    -4.9750     0.0040 ca         1 50X      -0.146000
     10 C10        -11.1450    -5.1130    -0.3500 ca         1 50X      -0.096000
     11 C11        -10.1470    -4.7990     0.5490 ca         1 50X      -0.132000
     12 N12         -9.7540    -3.9450     2.9190 na         1 50X      -0.129300
     13 C13        -10.6430    -3.5880     3.8840 cc         1 50X       0.326800
     14 N14        -11.8600    -3.7430     3.4510 nd         1 50X      -0.539100
     15 C15         -6.9120    -0.5190     1.4300 cd         1 50X      -0.052400
     16 S16         -7.3270    -2.1560     0.9350 ss         1 50X      -0.123800
     17 C17         -7.7820    -2.5700     2.5830 cd         1 50X      -0.075400
     18 C18         -7.6070    -1.5120     3.3750 cc         1 50X      -0.131000
     19 C19         -7.1260    -0.3800     2.7400 cc         1 50X      -0.141000
     20 C20         -0.7850    -0.0150    -1.0950 c          1 50X       0.653100
     21 C21         -2.2850    -0.0060    -0.9470 c3         1 50X       0.095100
     22 C22         -2.7270     1.3130    -0.3120 c3         1 50X       0.087100
     23 C23         -4.2330     1.3740    -0.2750 c          1 50X       0.629100
     24 O24         -4.8220     2.2090    -0.9280 o          1 50X      -0.574100
     25 N25         -4.9240     0.4990     0.4820 ns         1 50X      -0.590900
     26 O26         -2.8920    -0.1430    -2.2330 oh         1 50X      -0.548800
     27 C27         -6.3870     0.5580     0.5170 c3         1 50X       0.190300
     28 O28         -2.2250     2.4050    -1.0840 oh         1 50X      -0.552800
     29 O29         -0.2860    -0.0350    -2.2000 o          1 50X      -0.553100
     30 C30         -8.2930    -3.9150     3.0290 c3         1 50X       0.120600
     31 C31        -10.2720    -3.0920     5.2590 c3         1 50X       0.636600
     32 F32         -9.2610    -3.8990     5.7890 f          1 50X      -0.208633
     33 F33         -9.8190    -1.7720     5.1710 f          1 50X      -0.208633
     34 F34        -11.3960    -3.1450     6.0920 f          1 50X      -0.208633
     35 C35          1.9830     1.2330    -0.7000 ca         1 50X      -0.085300
     36 C36          3.0800     1.1470    -1.5360 ca         1 50X      -0.103000
     37 C37          3.5510     2.2790    -2.1780 ca         1 50X       0.030400
     38 C38          2.9220     3.4960    -1.9820 ca         1 50X      -0.116000
     39 C39          1.8250     3.5800    -1.1460 ca         1 50X      -0.116000
     40 C40          1.3520     2.4480    -0.5100 ca         1 50X      -0.102000
     41 Cl41         4.9290     2.1720    -3.2280 cl         1 50X      -0.112400
     42 H2           1.8360    -0.8900    -0.4970 h1         1 50X       0.070700
     43 H3           2.7880    -0.6470     1.6060 hc         1 50X       0.063200
     44 H3A          2.1440     1.0080     1.8060 hc         1 50X       0.063200
     45 H4           0.6660    -0.2160     3.2440 hc         1 50X       0.058700
     46 H4A          0.6850    -1.6530     2.1770 hc         1 50X       0.058700
     47 H5          -0.6700     1.0440     1.7080 h1         1 50X       0.039700
     48 H5A         -1.3600    -0.5870     1.5040 h1         1 50X       0.039700
     49 H9         -13.2520    -5.2260    -0.7120 ha         1 50X       0.139000
     50 H10        -10.8850    -5.4700    -1.3400 ha         1 50X       0.138000
     51 H11         -9.1070    -4.9080     0.2670 ha         1 50X       0.129000
     52 H18         -7.8240    -1.5360     4.4360 ha         1 50X       0.161000
     53 H19         -6.9390     0.5480     3.2650 ha         1 50X       0.156000
     54 H21         -2.5890    -0.8320    -0.3150 h1         1 50X       0.040700
     55 H22         -2.3390     1.3760     0.6980 h1         1 50X       0.046700
     56 HN25        -4.4370    -0.1660     1.0490 hn         1 50X       0.311500
     57 HO26        -2.8540    -1.0460    -2.5040 ho         1 50X       0.411000
     58 H27         -6.7010     1.5280     0.8850 h1         1 50X       0.070700
     59 H27A        -6.7790     0.4070    -0.4820 h1         1 50X       0.070700
     60 HO28        -2.5600     3.2150    -0.7380 ho         1 50X       0.417000
     61 H30         -7.8680    -4.6900     2.4020 h1         1 50X       0.083200
     62 H30A        -8.0050    -4.0870     4.0600 h1         1 50X       0.083200
     63 H36          3.5720     0.1930    -1.6890 ha         1 50X       0.142000
     64 H38          3.2910     4.3830    -2.4820 ha         1 50X       0.143000
     65 H39          1.3310     4.5320    -0.9940 ha         1 50X       0.136000
     66 H40          0.4920     2.5150     0.1450 ha         1 50X       0.131000
     67 H8         -13.8730    -4.4230     1.5110 ha         1 50X       0.148000
@<TRIPOS>BOND
     1     2     1 1   
     2     1     5 1   
     3     1    20 1   
     4     3     2 1   
     5    35     2 1   
     6     2    42 1   
     7     3     4 1   
     8     3    43 1   
     9     3    44 1   
    10     4     5 1   
    11     4    45 1   
    12     4    46 1   
    13     5    47 1   
    14     5    48 1   
    15    12     6 1   
    16     6     7 ar  
    17     6    11 ar  
    18    14     7 1   
    19     7     8 ar  
    20     8     9 ar  
    21     8    67 1   
    22    10     9 ar  
    23     9    49 1   
    24    11    10 ar  
    25    10    50 1   
    26    11    51 1   
    27    30    12 1   
    28    13    12 1   
    29    31    13 1   
    30    13    14 2   
    31    27    15 1   
    32    19    15 2   
    33    15    16 1   
    34    17    16 1   
    35    18    17 2   
    36    17    30 1   
    37    19    18 1   
    38    18    52 1   
    39    19    53 1   
    40    29    20 2   
    41    20    21 1   
    42    21    22 1   
    43    21    26 1   
    44    21    54 1   
    45    28    22 1   
    46    22    23 1   
    47    22    55 1   
    48    24    23 2   
    49    23    25 1   
    50    25    27 1   
    51    25    56 1   
    52    26    57 1   
    53    27    58 1   
    54    27    59 1   
    55    28    60 1   
    56    30    61 1   
    57    30    62 1   
    58    33    31 1   
    59    32    31 1   
    60    31    34 1   
    61    40    35 ar  
    62    35    36 ar  
    63    37    36 ar  
    64    36    63 1   
    65    38    37 ar  
    66    37    41 1   
    67    39    38 ar  
    68    38    64 1   
    69    39    40 ar  
    70    39    65 1   
    71    40    66 1   
@<TRIPOS>SUBSTRUCTURE
     1 50X         1 TEMP              0 ****  ****    0 ROOT
