@<TRIPOS>MOLECULE
50Y
   60    67     1     0     0
SMALL
bcc


@<TRIPOS>ATOM
      1 C17          0.0000     0.0000     0.0000 c3         1 50Y      -0.156000
      2 C16          1.5300     0.0000     0.0000 DU         1 50Y      -0.300000
      3 C15          3.4880    -2.3850     0.1270 c2         1 50Y       0.370000
      4 C20          4.5470    -1.2550    -1.7530 cx         1 50Y      -0.089000
      5 C21          2.0810    -1.8500    -1.7890 cx         1 50Y      -0.114000
      6 C22          5.3020    -0.1630    -0.9930 cx         1 50Y      -0.183000
      7 C23          5.9190    -1.5550    -1.1460 cx         1 50Y      -0.183000
      8 C24          1.4180    -0.4980    -2.0560 DU         1 50Y      -0.236000
      9 C11          2.1370    -0.9660     6.9720 c2         1 50Y      -0.248000
     10 C27         -1.6820     3.7630     4.4700 c3         1 50Y      -0.129000
     11 C1           2.3670    -1.1310     3.3810 c2         1 50Y      -0.198000
     12 C2           1.6820    -0.2680     2.5040 c2         1 50Y      -0.074000
     13 N3           0.8860     0.6850     2.9830 n2         1 50Y      -0.179000
     14 C4           0.7000     0.8680     4.2770 c2         1 50Y       0.087000
     15 C5           1.3460     0.0490     5.2240 c2         1 50Y      -0.208000
     16 C6           2.1950    -0.9680     4.7710 c2         1 50Y      -0.112000
     17 C7           3.1200    -2.0210     2.5890 c2         1 50Y      -0.054000
     18 C8           2.8960    -1.7050     1.2830 c2         1 50Y      -0.339000
     19 N9           2.0190    -0.6350     1.2260 na         1 50Y       0.358000
     20 N10          1.3590     0.0000     6.5790 n2         1 50Y      -0.061000
     21 N12          2.6770    -1.5940     5.8900 na         1 50Y       0.314000
     22 C14          3.6030    -2.7290     5.9190 c3         1 50Y      -0.106000
     23 O18          4.0810    -3.4370     0.2780 o          1 50Y      -0.328000
     24 N19          3.3760    -1.8460    -1.1030 n          1 50Y      -0.043000
     25 C25          0.8530    -1.4290    -0.9820 DU         1 50Y      -0.296000
     26 C26         -0.8190     2.7360     3.7340 c3         1 50Y      -0.073000
     27 C28         -2.3900     4.6590     3.4510 c3         1 50Y       0.067000
     28 O29         -3.1950     5.6170     4.1390 os         1 50Y      -0.275000
     29 C30         -3.9040     6.5080     3.2740 c3         1 50Y       0.066000
     30 H1          -0.3610    -0.8880     0.5050 hc         1 50Y       0.070000
     31 H2          -0.3610     0.0060    -1.0210 hc         1 50Y       0.070000
     32 H3          -0.3610     0.8810     0.5160 hc         1 50Y       0.070000
     33 H4           1.8910     1.0200    -0.0460 ha         1 50Y       0.068000
     34 H5           1.8910    -0.5500    -0.8610 DU         1 50Y       0.237000
     35 H6           4.5440    -1.1370    -2.8300 h1         1 50Y       0.107000
     36 H7           1.8910    -2.6050    -2.5430 h1         1 50Y       0.107000
     37 H8           4.9180     0.0720    -0.0070 hc         1 50Y       0.094250
     38 H9           5.7440     0.6140    -1.6050 hc         1 50Y       0.094250
     39 H10          6.7370    -1.6280    -1.8520 hc         1 50Y       0.094250
     40 H11          5.9110    -2.1710    -0.2550 hc         1 50Y       0.094250
     41 H12          1.9570     0.3680    -1.6890 ha         1 50Y       0.118000
     42 H13          0.8400    -0.4330    -2.9700 ha         1 50Y       0.118000
     43 H14          2.3280    -1.2310     8.0050 h5         1 50Y       0.160000
     44 H15         -1.0540     4.3710     5.1100 hc         1 50Y       0.066500
     45 H16         -2.4210     3.2480     5.0730 hc         1 50Y       0.066500
     46 H17          3.6870    -2.8700     2.9500 ha         1 50Y       0.132000
     47 H18         -0.2800     2.0290     5.6900 hn         1 50Y       0.107000
     48 H19          3.8060    -3.0040     6.9470 h1         1 50Y       0.064333
     49 H20          4.5290    -2.4530     5.4290 h1         1 50Y       0.064333
     50 H21          3.1590    -3.5710     5.4010 h1         1 50Y       0.064333
     51 H22         -0.0710    -1.9330    -1.2390 ha         1 50Y       0.092000
     52 H23          1.0460    -1.1330     0.0420 DU         1 50Y       0.225000
     53 H24         -0.0800     3.2500     3.1320 h1         1 50Y       0.062000
     54 H25         -1.4470     2.1280     3.0940 h1         1 50Y       0.062000
     55 H26         -1.6510     5.1730     2.8490 h1         1 50Y       0.031000
     56 H27         -3.0180     4.0510     2.8120 h1         1 50Y       0.031000
     57 H28         -4.5750     5.9400     2.6420 h1         1 50Y       0.026333
     58 H29         -3.1970     7.0500     2.6560 h1         1 50Y       0.026333
     59 H30         -4.4750     7.2100     3.8690 h1         1 50Y       0.026333
     60 N13         -0.1420     1.8780     4.7100 nu         1 50Y       0.070000
@<TRIPOS>BOND
     1     1     2 1   
     2     1    30 1   
     3     1    31 1   
     4     1    32 1   
     5     2    19 1   
     6     2    25 1   
     7     2    33 1   
     8     2    34 1   
     9     2    52 1   
    10     3    18 1   
    11     3    23 1   
    12     3    24 1   
    13     4     6 1   
    14     4     7 1   
    15     4    24 1   
    16     4    35 1   
    17     5     8 1   
    18     5    24 1   
    19     5    25 1   
    20     5    36 1   
    21     6     7 1   
    22     6    37 1   
    23     6    38 1   
    24     7    39 1   
    25     7    40 1   
    26     8    25 1   
    27     8    34 1   
    28     8    41 1   
    29     8    42 1   
    30     9    20 1   
    31     9    21 1   
    32     9    43 1   
    33    10    26 1   
    34    10    27 1   
    35    10    44 1   
    36    10    45 1   
    37    11    12 1   
    38    11    16 1   
    39    11    17 1   
    40    12    13 1   
    41    12    19 1   
    42    13    14 1   
    43    14    15 1   
    44    14    60 1   
    45    15    16 1   
    46    15    20 1   
    47    16    21 1   
    48    17    18 1   
    49    17    46 1   
    50    18    19 1   
    51    21    22 1   
    52    22    48 1   
    53    22    49 1   
    54    22    50 1   
    55    25    51 1   
    56    25    52 1   
    57    26    53 1   
    58    26    54 1   
    59    26    60 1   
    60    27    28 1   
    61    27    55 1   
    62    27    56 1   
    63    28    29 1   
    64    29    57 1   
    65    29    58 1   
    66    29    59 1   
    67    47    60 1   
@<TRIPOS>SUBSTRUCTURE
     1 50Y         1 TEMP              0 ****  ****    0 ROOT
