@<TRIPOS>MOLECULE
molecule
   60    64     1     0     0
SMALL
bcc


@<TRIPOS>ATOM
      1 C17          0.0000     0.0000     0.0000 c3         1 50Y      -0.116100
      2 C16          1.5300     0.0000     0.0000 c3         1 50Y      -0.041700
      3 C15          3.4880    -2.3850     0.1270 c          1 50Y       0.749300
      4 C20          4.5470    -1.2550    -1.7530 cx         1 50Y       0.057700
      5 C21          2.0810    -1.8500    -1.7890 cx         1 50Y       0.057700
      6 C22          5.3020    -0.1630    -0.9930 cx         1 50Y      -0.178900
      7 C23          5.9190    -1.5550    -1.1460 cx         1 50Y      -0.178900
      8 C24          1.4180    -0.4980    -2.0560 cx         1 50Y      -0.178900
      9 C11          2.1370    -0.9660     6.9720 cc         1 50Y       0.389700
     10 C27         -1.6820     3.7630     4.4700 c3         1 50Y      -0.103400
     11 C1           2.3670    -1.1310     3.3810 ca         1 50Y      -0.285100
     12 C2           1.6820    -0.2680     2.5040 ca         1 50Y       0.534800
     13 N3           0.8860     0.6850     2.9830 nb         1 50Y      -0.820000
     14 C4           0.7000     0.8680     4.2770 ca         1 50Y       0.804200
     15 C5           1.3460     0.0490     5.2240 ca         1 50Y      -0.109900
     16 C6           2.1950    -0.9680     4.7710 ca         1 50Y       0.005800
     17 C7           3.1200    -2.0210     2.5890 cc         1 50Y      -0.081200
     18 C8           2.8960    -1.7050     1.2830 cd         1 50Y      -0.186300
     19 N9           2.0190    -0.6350     1.2260 na         1 50Y      -0.150100
     20 N10          1.3590     0.0000     6.5790 nd         1 50Y      -0.580100
     21 N12          2.6770    -1.5940     5.8900 na         1 50Y      -0.133300
     22 C14          3.6030    -2.7290     5.9190 c3         1 50Y       0.036600
     23 O18          4.0810    -3.4370     0.2780 o          1 50Y      -0.537100
     24 N19          3.3760    -1.8460    -1.1030 n          1 50Y      -0.521800
     25 C25          0.8530    -1.4290    -0.9820 cx         1 50Y      -0.178900
     26 C26         -0.8190     2.7360     3.7340 c3         1 50Y       0.239800
     27 C28         -2.3900     4.6590     3.4510 c3         1 50Y       0.142400
     28 O29         -3.1950     5.6170     4.1390 os         1 50Y      -0.430600
     29 C30         -3.9040     6.5080     3.2740 c3         1 50Y       0.130700
     30 H1          -0.3610    -0.8880     0.5050 hc         1 50Y       0.053033
     31 H2          -0.3610     0.0060    -1.0210 hc         1 50Y       0.053033
     32 H3          -0.3610     0.8810     0.5160 hc         1 50Y       0.053033
     33 H4           1.8910     1.0200    -0.0460 h1         1 50Y       0.104200
     34 H5           1.8910    -0.5500    -0.8610 h1         1 50Y       0.104200
     35 H6           4.5440    -1.1370    -2.8300 h1         1 50Y       0.094700
     36 H7           1.8910    -2.6050    -2.5430 h1         1 50Y       0.094700
     37 H8           4.9180     0.0720    -0.0070 hc         1 50Y       0.096825
     38 H9           5.7440     0.6140    -1.6050 hc         1 50Y       0.096825
     39 H10          6.7370    -1.6280    -1.8520 hc         1 50Y       0.096825
     40 H11          5.9110    -2.1710    -0.2550 hc         1 50Y       0.096825
     41 H12          1.9570     0.3680    -1.6890 hc         1 50Y       0.096825
     42 H13          0.8400    -0.4330    -2.9700 hc         1 50Y       0.096825
     43 H14          2.3280    -1.2310     8.0050 h5         1 50Y       0.074800
     44 H15         -1.0540     4.3710     5.1100 hc         1 50Y       0.059700
     45 H16         -2.4210     3.2480     5.0730 hc         1 50Y       0.059700
     46 H17          3.6870    -2.8700     2.9500 ha         1 50Y       0.159000
     47 H18         -0.2800     2.0290     5.6900 hn         1 50Y       0.465800
     48 H19          3.8060    -3.0040     6.9470 h1         1 50Y       0.056033
     49 H20          4.5290    -2.4530     5.4290 h1         1 50Y       0.056033
     50 H21          3.1590    -3.5710     5.4010 h1         1 50Y       0.056033
     51 H22         -0.0710    -1.9330    -1.2390 hc         1 50Y       0.096825
     52 H23          1.0460    -1.1330     0.0420 hc         1 50Y       0.096825
     53 H24         -0.0800     3.2500     3.1320 h1         1 50Y       0.050200
     54 H25         -1.4470     2.1280     3.0940 h1         1 50Y       0.050200
     55 H26         -1.6510     5.1730     2.8490 h1         1 50Y       0.025200
     56 H27         -3.0180     4.0510     2.8120 h1         1 50Y       0.025200
     57 H28         -4.5750     5.9400     2.6420 h1         1 50Y       0.030367
     58 H29         -3.1970     7.0500     2.6560 h1         1 50Y       0.030367
     59 H30         -4.4750     7.2100     3.8690 h1         1 50Y       0.030367
     60 N13         -0.1420     1.8780     4.7100 nu         1 50Y      -0.896900
@<TRIPOS>BOND
     1    25     8 1   
     2    25     5 1   
     3     7     4 1   
     4     7     6 1   
     5     4     6 1   
     6     4    24 1   
     7     8     5 1   
     8     5    24 1   
     9    24     3 1   
    10    22    21 1   
    11     3    18 1   
    12     3    23 2   
    13    17    18 2   
    14    17    11 1   
    15    21     9 1   
    16    21    16 1   
    17    18    19 1   
    18    11    16 ar  
    19    11    12 ar  
    20     9    20 2   
    21    16    15 ar  
    22    19    12 1   
    23    19     2 1   
    24    12    13 ar  
    25     1     2 1   
    26    20    15 1   
    27    15    14 ar  
    28    13    14 ar  
    29    14    60 1   
    30    60    26 1   
    31    26    10 1   
    32    10    27 1   
    33    27    28 1   
    34    28    29 1   
    35     1    30 1   
    36     1    31 1   
    37     1    32 1   
    38     2    33 1   
    39     2    34 1   
    40     4    35 1   
    41     5    36 1   
    42     6    37 1   
    43     6    38 1   
    44     7    39 1   
    45     7    40 1   
    46     8    41 1   
    47     8    42 1   
    48     9    43 1   
    49    10    44 1   
    50    10    45 1   
    51    17    46 1   
    52    60    47 1   
    53    22    48 1   
    54    22    49 1   
    55    22    50 1   
    56    25    51 1   
    57    25    52 1   
    58    26    53 1   
    59    26    54 1   
    60    27    55 1   
    61    27    56 1   
    62    29    57 1   
    63    29    58 1   
    64    29    59 1   
@<TRIPOS>SUBSTRUCTURE
     1 50Y         1 TEMP              0 ****  ****    0 ROOT
