@<TRIPOS>MOLECULE
50Z
   30    31     1     0     0
SMALL
bcc


@<TRIPOS>ATOM
      1 N1           0.0000     0.0000     0.0000 nc         1 50Z      -0.715000
      2 C2           1.3120     0.0000     0.0000 cc         1 50Z       0.603200
      3 N3           2.0700     0.0000    -1.1590 nv         1 50Z      -0.620500
      4 C4           1.8660     0.0000     1.2690 cd         1 50Z      -0.286000
      5 C5           3.2380    -0.0010     1.5750 c          1 50Z       0.591200
      6 C6           3.6810    -0.0010     2.9900 ca         1 50Z       0.295800
      7 C8           3.1300    -0.0010     5.2310 ca         1 50Z       0.387200
      8 N8           2.7780    -0.0010     3.9630 nb         1 50Z      -0.535000
      9 C9           4.4650    -0.0010     5.5980 ca         1 50Z      -0.199300
     10 C10          5.4420    -0.0070     4.6130 ca         1 50Z      -0.084000
     11 C11          5.0420    -0.0060     3.2870 ca         1 50Z      -0.154300
     12 O12          4.0630    -0.0010     0.6780 o          1 50Z      -0.580100
     13 S13          0.5410     0.0000     2.4300 ss         1 50Z      -0.265300
     14 C14         -0.5980    -0.0000     1.1570 cd         1 50Z       0.571300
     15 N15         -1.9620    -0.0010     1.3310 nu         1 50Z      -0.437900
     16 C16         -2.8490    -0.0010     0.1650 c3         1 50Z       0.199000
     17 C17         -4.2840    -0.0010     0.6240 c2         1 50Z      -0.191200
     18 C18         -5.1060     0.9290     0.2050 c2         1 50Z      -0.127000
     19 HN3          2.3250     0.8670    -1.5900 hn         1 50Z       0.280800
     20 HN3A         2.3240    -0.8670    -1.5900 hn         1 50Z       0.280800
     21 H8           2.3650     0.0010     5.9980 h4         1 50Z      -0.017900
     22 H9           4.7440    -0.0010     6.6450 ha         1 50Z       0.112000
     23 H10          6.4930    -0.0090     4.8750 ha         1 50Z       0.111000
     24 H11          5.7780    -0.0110     2.4920 ha         1 50Z       0.134000
     25 HN15        -2.3490    -0.0150     2.2540 hn         1 50Z       0.298800
     26 H16         -2.6600    -0.8850    -0.4320 h1         1 50Z       0.033200
     27 H16A        -2.6610     0.8840    -0.4320 h1         1 50Z       0.033200
     28 H17         -4.6360    -0.7700     1.3020 ha         1 50Z       0.107000
     29 H18         -4.7540     1.6980    -0.4720 ha         1 50Z       0.087500
     30 H18A        -6.1380     0.9290     0.5360 ha         1 50Z       0.087500
@<TRIPOS>BOND
     1     1     2 1   
     2     1    14 2   
     3     2     3 1   
     4     2     4 2   
     5     3    19 1   
     6     3    20 1   
     7     4     5 1   
     8     4    13 1   
     9     5     6 1   
    10     5    12 2   
    11     6     8 ar  
    12     6    11 ar  
    13     7     8 ar  
    14     7     9 ar  
    15     7    21 1   
    16     9    10 ar  
    17     9    22 1   
    18    10    11 ar  
    19    10    23 1   
    20    11    24 1   
    21    13    14 1   
    22    14    15 1   
    23    15    16 1   
    24    15    25 1   
    25    16    17 1   
    26    16    26 1   
    27    16    27 1   
    28    17    18 2   
    29    17    28 1   
    30    18    29 1   
    31    18    30 1   
@<TRIPOS>SUBSTRUCTURE
     1 50Z         1 TEMP              0 ****  ****    0 ROOT
