@<TRIPOS>MOLECULE
molecule
   30    31     1     0     0
SMALL
bcc


@<TRIPOS>ATOM
      1 N1           0.0000     0.0000     0.0000 nc         1 50Z      -0.815000
      2 C2           1.3120     0.0000     0.0000 cc         1 50Z       0.762200
      3 N3           2.0700     0.0000    -1.1590 nv         1 50Z      -1.053500
      4 C4           1.8660     0.0000     1.2690 cd         1 50Z      -0.323000
      5 C5           3.2380    -0.0010     1.5750 c          1 50Z       0.537200
      6 C6           3.6810    -0.0010     2.9900 ca         1 50Z       0.355800
      7 C8           3.1300    -0.0010     5.2310 ca         1 50Z       0.414200
      8 N8           2.7780    -0.0010     3.9630 nb         1 50Z      -0.680000
      9 C9           4.4650    -0.0010     5.5980 ca         1 50Z      -0.237300
     10 C10          5.4420    -0.0070     4.6130 ca         1 50Z      -0.104000
     11 C11          5.0420    -0.0060     3.2870 ca         1 50Z      -0.194300
     12 O12          4.0630    -0.0010     0.6780 o          1 50Z      -0.537100
     13 S13          0.5410     0.0000     2.4300 ss         1 50Z      -0.122300
     14 C14         -0.5980    -0.0000     1.1570 cd         1 50Z       0.712300
     15 N15         -1.9620    -0.0010     1.3310 nu         1 50Z      -0.883900
     16 C16         -2.8490    -0.0010     0.1650 c3         1 50Z       0.273000
     17 C17         -4.2840    -0.0010     0.6240 c2         1 50Z      -0.208200
     18 C18         -5.1060     0.9290     0.2050 c2         1 50Z      -0.193000
     19 HN3          2.3250     0.8670    -1.5900 hn         1 50Z       0.443300
     20 HN3A         2.3240    -0.8670    -1.5900 hn         1 50Z       0.443300
     21 H8           2.3650     0.0010     5.9980 h4         1 50Z       0.024100
     22 H9           4.7440    -0.0010     6.6450 ha         1 50Z       0.139000
     23 H10          6.4930    -0.0090     4.8750 ha         1 50Z       0.142000
     24 H11          5.7780    -0.0110     2.4920 ha         1 50Z       0.162000
     25 HN15        -2.3490    -0.0150     2.2540 hn         1 50Z       0.453800
     26 H16         -2.6610     0.8840    -0.4320 h1         1 50Z       0.061200
     27 H16A        -2.6600    -0.8850    -0.4320 h1         1 50Z       0.061200
     28 H17         -4.6360    -0.7700     1.3020 ha         1 50Z       0.127000
     29 H18         -6.1380     0.9290     0.5360 ha         1 50Z       0.118000
     30 H18A        -4.7540     1.6980    -0.4720 ha         1 50Z       0.118000
@<TRIPOS>BOND
     1     1     2 1   
     2     1    14 2   
     3     2     3 1   
     4     2     4 2   
     5     4     5 1   
     6     4    13 1   
     7     5     6 1   
     8     5    12 2   
     9     6     8 ar  
    10     6    11 ar  
    11     7     8 ar  
    12     7     9 ar  
    13     9    10 ar  
    14    10    11 ar  
    15    13    14 1   
    16    14    15 1   
    17    15    16 1   
    18    16    17 1   
    19    17    18 2   
    20     3    19 1   
    21     3    20 1   
    22     7    21 1   
    23     9    22 1   
    24    10    23 1   
    25    11    24 1   
    26    15    25 1   
    27    16    26 1   
    28    16    27 1   
    29    17    28 1   
    30    18    29 1   
    31    18    30 1   
@<TRIPOS>SUBSTRUCTURE
     1 50Z         1 TEMP              0 ****  ****    0 ROOT
