@<TRIPOS>MOLECULE
molecule
   51    52     1     0     0
SMALL
bcc


@<TRIPOS>ATOM
      1 C1           0.0000     0.0000     0.0000 c3         1 510       0.004900
      2 C2           1.5300     0.0000     0.0000 c3         1 510       0.135100
      3 C3           2.0340     0.0000     1.4470 c3         1 510       0.111100
      4 C4           1.4530    -1.2140     2.1780 c3         1 510       0.128100
      5 C5          -0.0750    -1.1670     2.0940 c3         1 510       0.081100
      6 C6          -0.6610    -2.4090     2.7700 c3         1 510       0.150400
      7 O2           2.0090    -1.1680    -0.6720 oh         1 510      -0.528800
      8 O3           3.4610    -0.0740     1.4560 oh         1 510      -0.570800
      9 O4           1.9290    -2.4140     1.5630 oh         1 510      -0.557800
     10 O6          -2.0880    -2.3180     2.7770 oh         1 510      -0.642800
     11 O5          -0.4750    -1.1390     0.7220 os         1 510      -0.359600
     12 SBN         -0.6060     1.5150     0.7930 s6         1 510       1.311900
     13 OAN         -0.2880     1.5130     2.1790 o          1 510      -0.599800
     14 OAO         -0.3300     2.6470    -0.0200 o          1 510      -0.599800
     15 N           -2.2550     1.3730     0.7510 n3         1 510      -0.798500
     16 CD1         -3.0800     0.6450     1.7330 c3         1 510       0.237800
     17 CG          -4.3760     0.2800     0.9680 c3         1 510       0.109100
     18 OD2         -4.1840    -0.8850     0.1610 os         1 510      -0.492500
     19 SBM         -4.7790    -2.1530     0.7560 s6         1 510       1.490400
     20 OAL         -4.3610    -3.2230    -0.0830 o          1 510      -0.515300
     21 OAM         -4.5090    -2.1090     2.1500 o          1 510      -0.515300
     22 NAF         -6.4230    -2.0480     0.5920 nz         1 510      -0.834500
     23 CB          -4.5820     1.5380     0.0850 c3         1 510      -0.076400
     24 CA          -3.1390     1.9570    -0.2680 c3         1 510       0.213500
     25 C           -3.0190     3.4590    -0.2500 c          1 510       0.606100
     26 O           -2.2710     3.9960     0.5330 o          1 510      -0.492000
     27 OAS         -3.7430     4.2010    -1.1030 os         1 510      -0.435900
     28 CAA         -3.5760     5.6410    -1.0300 c3         1 510       0.139700
     29 H1          -0.3590    -0.0470    -1.0210 h2         1 510       0.125700
     30 H2           1.8900     0.8870    -0.5060 h1         1 510       0.052700
     31 H3           1.7100     0.9080     1.9410 h1         1 510       0.061700
     32 H4           1.7570    -1.1890     3.2170 h1         1 510       0.050700
     33 H5          -0.4350    -0.2750     2.5920 h1         1 510       0.089700
     34 H6          -0.3590    -3.2940     2.2230 h1         1 510       0.054200
     35 H7          -0.2980    -2.4710     3.7880 h1         1 510       0.054200
     36 H8           2.3140    -0.9320    -1.5320 ho         1 510       0.401000
     37 H9           3.8110     0.6710     1.9180 ho         1 510       0.408000
     38 H10          2.5240    -2.8520     2.1480 ho         1 510       0.405000
     39 H11         -2.4370    -2.9160     3.4160 ho         1 510       0.416000
     40 H14         -3.3090     1.2840     2.5770 h1         1 510       0.103200
     41 H15         -5.2040     0.1520     1.6540 h1         1 510       0.050700
     42 H16         -6.8240    -2.9630     0.6520 hn         1 510       0.494133
     43 H17         -6.7950    -1.4720     1.3220 hn         1 510       0.494133
     44 H18         -5.0790     2.3200     0.6470 hc         1 510       0.084700
     45 H19         -5.1370     1.2890    -0.8110 hc         1 510       0.084700
     46 H20         -2.8750     1.5730    -1.2460 h1         1 510       0.090700
     47 H21         -3.8300     5.9840    -0.0350 h1         1 510       0.059700
     48 H22         -2.5460     5.8960    -1.2490 h1         1 510       0.059700
     49 H23         -4.2280     6.1170    -1.7530 h1         1 510       0.059700
     50 H12         -2.5700    -0.2540     2.0590 h1         1 510       0.103200
     51 HAF3        -6.6440    -1.6200    -0.2850 hn         1 510       0.494133
@<TRIPOS>BOND
     1     1     2 1
     2     1    11 1
     3     1    12 1
     4     2     3 1
     5     2     7 1
     6     3     4 1
     7     3     8 1
     8     4     5 1
     9     4     9 1
    10     5     6 1
    11     5    11 1
    12     6    10 1
    13    12    13 2
    14    12    14 2
    15    12    15 1
    16    15    16 1
    17    15    24 1
    18    16    17 1
    19    17    18 1
    20    17    23 1
    21    18    19 1
    22    19    20 2
    23    19    21 2
    24    19    22 1
    25    23    24 1
    26    24    25 1
    27    25    26 2
    28    25    27 1
    29    27    28 1
    30     1    29 1
    31     2    30 1
    32     3    31 1
    33     4    32 1
    34     5    33 1
    35     6    34 1
    36     6    35 1
    37     7    36 1
    38     8    37 1
    39     9    38 1
    40    10    39 1
    41    16    40 1
    42    17    41 1
    43    22    42 1
    44    22    43 1
    45    23    44 1
    46    23    45 1
    47    24    46 1
    48    28    47 1
    49    28    48 1
    50    28    49 1
    51    16    50 1
    52    51    22 1
@<TRIPOS>SUBSTRUCTURE
     1 510         1 TEMP              0 ****  ****    0 ROOT
