@<TRIPOS>MOLECULE
molecule
   37    39     1     0     0
SMALL
bcc


@<TRIPOS>ATOM
      1 Cl1          0.0000     0.0000     0.0000 cl         1 511      -0.125400
      2 N01          6.6560    -0.1100    -1.1630 n          1 511      -0.279200
      3 C02          7.2500     0.9310    -1.8350 cc         1 511      -0.085400
      4 O01          8.1190     2.4380    -6.1050 o          1 511      -0.845300
      5 C03          7.8340     0.4790    -2.9520 cd         1 511      -0.046400
      6 O02          6.5050     1.3440    -5.0640 o          1 511      -0.845300
      7 C04          7.9590    -1.9720    -3.9090 ca         1 511      -0.080000
      8 C05          7.5830    -3.2780    -3.6620 ca         1 511       0.103100
      9 C06          6.8510    -3.5930    -2.5210 ca         1 511      -0.225000
     10 C07          6.4910    -2.6090    -1.6250 ca         1 511      -0.143000
     11 C08          7.6010    -0.9680    -3.0080 ca         1 511      -0.028800
     12 C09          6.8610    -1.2900    -1.8570 ca         1 511      -0.006400
     13 C10          8.5880     1.3020    -3.9630 c3         1 511      -0.128200
     14 C11          7.6600     1.6960    -5.0840 c          1 511       0.893600
     15 C12          7.5100    -5.5890    -4.2200 c3         1 511       0.138700
     16 C14          4.5050     0.0000     0.0000 ca         1 511      -0.150600
     17 C15          3.8040     0.0000     1.2080 ca         1 511      -0.060000
     18 C16          2.4260     0.0010     1.2010 ca         1 511      -0.157500
     19 C17          1.7360    -0.0000    -0.0000 ca         1 511       0.050400
     20 C18          2.4260    -0.0010    -1.2010 ca         1 511      -0.157500
     21 C19          3.8050     0.0050    -1.2080 ca         1 511      -0.060000
     22 H1           7.2470     1.9640    -1.5090 h4         1 511       0.170000
     23 H3           8.6460    -1.8910    -4.7420 ha         1 511       0.155000
     24 H4           6.3340    -4.4530    -2.1130 ha         1 511       0.129000
     25 H5           6.0600    -3.0390    -0.7290 ha         1 511       0.117000
     26 H6           8.9760     2.1940    -3.4850 hc         1 511       0.042200
     27 H7           9.4100     0.7200    -4.3620 hc         1 511       0.042200
     28 H8           6.4280    -5.6240    -4.1750 h1         1 511       0.030033
     29 H9           7.9200    -5.8730    -3.2580 h1         1 511       0.030033
     30 H10          7.8620    -6.2750    -4.9800 h1         1 511       0.030033
     31 H11          4.3420     0.0640     2.1460 ha         1 511       0.172500
     32 H12          1.8810     0.0020     2.1370 ha         1 511       0.145500
     33 H13          1.8810    -0.0070    -2.1380 ha         1 511       0.145500
     34 H14          3.9580     0.1890    -2.2640 ha         1 511       0.172500
     35 O03          7.9310    -4.2600    -4.5360 os         1 511      -0.335900
     36 O04          6.5900     0.0990     1.0480 o          1 511      -0.534100
     37 C13          5.9830    -0.0010    -0.0000 c          1 511       0.725700
@<TRIPOS>BOND
     1    15    35 1
     2    35     8 1
     3     8     9 ar
     4     8     7 ar
     5     9    10 ar
     6     7    11 ar
     7    10    12 ar
     8     6    14 1
     9     4    14 1
    10    11    12 ar
    11    11     5 1
    12    14    13 1
    13    12     2 1
    14     5    13 1
    15     5     3 2
    16    36    37 2
    17     2     3 1
    18     2    37 1
    19    37    16 1
    20    16    17 ar
    21    16    21 ar
    22    17    18 ar
    23    21    20 ar
    24    18    19 ar
    25    20    19 ar
    26    19     1 1
    27     3    22 1
    28     7    23 1
    29     9    24 1
    30    10    25 1
    31    13    26 1
    32    13    27 1
    33    15    28 1
    34    15    29 1
    35    15    30 1
    36    17    31 1
    37    18    32 1
    38    20    33 1
    39    21    34 1
@<TRIPOS>SUBSTRUCTURE
     1 511         1 TEMP              0 ****  ****    0 ROOT
