@<TRIPOS>MOLECULE
511
   37    37     1     0     0
SMALL
bcc


@<TRIPOS>ATOM
      1 CL1         1.8420   -1.1300    1.6780 cl        1 511     -0.046000
      2 N01         6.8540    0.5580   -1.3950 n         1 511     -0.224000
      3 C02         8.1080    1.0110   -1.6700 c1        1 511      0.042000
      4 O01        10.4220   -0.3430   -5.7220 o         1 511     -0.572000
      5 C03         8.3550    1.0020   -3.1630 c3        1 511     -0.160000
      6 O02         9.9880    1.8150   -5.3320 o         1 511     -0.572000
      7 C04         6.6340   -0.8920   -3.4760 cu        1 511     -0.174000
      8 C05         6.5660   -2.1770   -3.7700 c2        1 511      0.014000
      9 C06         5.8930   -3.1500   -3.0050 c1        1 511     -0.082000
     10 C07         5.3350   -4.0020   -2.3750 c1        1 511     -0.236000
     11 C08         7.0660    0.4700   -3.8000 cx        1 511     -0.080000
     12 C09         6.1180    0.1940   -2.6060 cx        1 511     -0.112000
     13 C10         9.6020    0.2400   -3.5430 c3        1 511     -0.208000
     14 C11        10.0390    0.6050   -4.9760 c2        1 511      0.322000
     15 C12         8.0960   -2.4250   -5.6540 c1        1 511     -0.078000
     16 C14         4.8040    0.1810    0.0160 c3        1 511     -0.204000
     17 C15         4.5540   -1.2280    0.0930 c1        1 511      0.006000
     18 C16         3.4460   -1.9820   -0.2820 c2        1 511     -0.158000
     19 C17         2.2560   -2.1170    0.3430 c2        1 511     -0.088000
     20 C18         1.2690   -3.1120   -0.0080 c2        1 511     -0.422000
     21 C19         1.4220   -4.4010   -0.2400 c1        1 511      0.182000
     22 H1          8.5130    2.0740   -3.4980 hc        1 511      0.174000
     23 H3          6.7570    0.9540   -4.7390 hc        1 511      0.155000
     24 H4          4.8610   -4.7660   -1.8140 ha        1 511      0.221000
     25 H5          5.0390    0.4260   -2.6030 h1        1 511      0.131000
     26 H6         10.4340    0.5190   -2.8480 hc        1 511      0.081500
     27 H7          9.4310   -0.8620   -3.4640 hc        1 511      0.081500
     28 H8          8.8460   -1.6290   -5.4890 ha        1 511      0.194000
     29 H9          3.6470   -4.5910    0.1170 ha        1 511      0.013000
     30 H10         3.4670   -5.2460    0.1840 ha        1 511      0.013000
     31 H11         4.2060    0.7410   -0.7540 hc        1 511      0.147000
     32 H12         3.6870   -2.6460   -1.1510 ha        1 511      0.203000
     33 H13         0.2250   -2.7290   -0.0800 ha        1 511      0.198000
     34 H14         4.4720    0.5630    1.0380 hc        1 511      0.147000
     35 O03         7.0900   -2.7630   -4.9970 os        1 511      0.012000
     36 O04         6.9450    0.7560    0.9130 o         1 511     -0.279000
     37 C13         6.2920    0.5050   -0.1070 c2        1 511      0.358000
@<TRIPOS>BOND
     1    1   19 1   
     2    2    3 1   
     3    2   12 1   
     4    2   37 1   
     5    3    5 1   
     6    4   14 1   
     7    5   11 1   
     8    5   13 1   
     9    5   22 1   
    10    6   14 1   
    11    7    8 1   
    12    7   11 1   
    13    7   12 1   
    14    8    9 1   
    15    8   35 1   
    16    9   10 1   
    17   10   24 1   
    18   11   12 1   
    19   11   23 1   
    20   12   25 1   
    21   13   14 1   
    22   13   26 1   
    23   13   27 1   
    24   15   28 1   
    25   15   35 1   
    26   16   17 1   
    27   16   31 1   
    28   16   34 1   
    29   16   37 1   
    30   17   18 1   
    31   18   19 1   
    32   18   32 1   
    33   19   20 1   
    34   20   21 1   
    35   20   33 1   
    36   29   30 1   
    37   36   37 1   
@<TRIPOS>SUBSTRUCTURE
     1 511         1 TEMP              0 ****  ****    0 ROOT
