@<TRIPOS>MOLECULE
molecule
   17    17     1     0     0
SMALL
bcc


@<TRIPOS>ATOM
      1 C1           0.0000     0.0000     0.0000 cc         1 512      -0.140100
      2 C2           1.3570     0.0000     0.0000 cd         1 512      -0.047900
      3 S3          -0.4020     0.0000     1.6850 ss         1 512      -0.201800
      4 C4           1.2510    -0.0060     2.3580 cc         1 512       0.038300
      5 C5           2.0300     0.0000     1.2030 cd         1 512       0.057100
      6 C6           1.6620    -0.0080     3.7110 c          1 512       0.897200
      7 O7           2.8480    -0.0130     3.9860 o          1 512      -0.815300
      8 O8           3.3860    -0.0010     1.2600 os         1 512      -0.254900
      9 C9           3.7990     1.3670     1.2770 c3         1 512       0.022400
     10 C10          5.3030     1.4370     1.3400 c          1 512       0.907600
     11 O13          5.9540     0.4190     1.3670 o          1 512      -0.856800
     12 O14          0.7400    -0.0040     4.6980 o          1 512      -0.815300
     13 O15          5.9190     2.6280     1.3660 o          1 512      -0.856800
     14 Br19         2.3140    -0.0020    -1.6320 br         1 512      -0.139100
     15 H1          -0.6710     0.0020    -0.8500 h4         1 512       0.157000
     16 H91          3.3780     1.8600     2.1440 h1         1 512       0.025200
     17 H92          3.4520     1.8600     0.3770 h1         1 512       0.025200
@<TRIPOS>BOND
     1     1     2 2
     2     1     3 1
     3     1    15 1
     4     2     5 1
     5     2    14 1
     6     3     4 1
     7     4     5 2
     8     4     6 1
     9     5     8 1
    10     6     7 1
    11     6    12 1
    12     8     9 1
    13     9    10 1
    14     9    16 1
    15     9    17 1
    16    10    11 1
    17    10    13 1
@<TRIPOS>SUBSTRUCTURE
     1 512         1 TEMP              0 ****  ****    0 ROOT
