@<TRIPOS>MOLECULE
512
   17    17     1     0     0
SMALL
bcc


@<TRIPOS>ATOM
      1 C1         -0.1020   -0.2280    0.0030 cc        1 512     -0.216100
      2 C2          1.2190    0.0250   -0.3070 cd        1 512     -0.066900
      3 S3         -0.4010   -0.0280    1.6200 ss        1 512     -0.022800
      4 C4          1.1820    0.4250    2.0000 cc        1 512     -0.171700
      5 C5          1.9810    0.4090    0.8690 cd        1 512      0.141100
      6 C6          1.4680    0.7860    3.4390 c         1 512      0.940200
      7 O7          1.7530    1.9830    3.7150 o         1 512     -0.826800
      8 O8          3.3040    0.6780    0.6860 os        1 512     -0.289900
      9 C9          4.0800    0.9570    1.8640 c3        1 512      0.008400
     10 C10         5.5560    1.0550    1.4070 c         1 512      0.916600
     11 O13         6.2900    0.0350    1.5470 o         1 512     -0.854300
     12 O14         1.3240   -0.1200    4.3120 o         1 512     -0.826800
     13 O15         5.9830    2.1620    0.9700 o         1 512     -0.854300
     14 BR19        1.8790   -0.1220   -2.0370 br        1 512     -0.121100
     15 H1         -0.8660   -0.5260   -0.7100 h4        1 512      0.139000
     16 H91         3.7260    1.9220    2.3100 h1        1 512      0.053200
     17 H92         3.9440    0.1260    2.6020 h1        1 512      0.053200
@<TRIPOS>BOND
     1    1    2 2   
     2    1    3 1   
     3    1   15 1   
     4    2    5 1   
     5    2   14 1   
     6    3    4 1   
     7    4    5 2   
     8    4    6 1   
     9    5    8 1   
    10    6    7 1   
    11    6   12 1   
    12    8    9 1   
    13    9   10 1   
    14    9   16 1   
    15    9   17 1   
    16   10   11 1   
    17   10   13 1   
@<TRIPOS>SUBSTRUCTURE
     1 512         1 TEMP              0 ****  ****    0 ROOT
