@<TRIPOS>MOLECULE
513
   21    22     1     0     0
SMALL
bcc


@<TRIPOS>ATOM
      1 C4           0.0000     0.0000     0.0000 cc         1 513       0.056600
      2 N7          -2.3930     1.3660     1.8500 nz         1 513       0.072400
      3 S3           1.7520     0.0000     0.0000 ss         1 513      -0.096500
      4 C2           1.8200     0.0000     1.7580 ca         1 513       0.034900
      5 C1           0.5230    -0.0000     2.2780 ca         1 513      -0.092800
      6 C5          -0.4810     0.0000     1.2280 cd         1 513      -0.204400
      7 C8           2.9170    -0.0010     2.6250 ca         1 513      -0.025000
      8 C9           2.7210    -0.0020     3.9860 ca         1 513      -0.049000
      9 C6          -1.9600     0.0020     1.5190 c3         1 513       0.045000
     10 C10          1.4340    -0.0010     4.5070 ca         1 513       0.044100
     11 C11          0.3520     0.0000     3.6800 ca         1 513      -0.083000
     12 Br1          1.1810    -0.0040     6.3810 br         1 513      -0.065100
     13 H8           3.9230    -0.0010     2.2240 ha         1 513       0.131000
     14 H9           3.5740    -0.0030     4.6540 ha         1 513       0.137000
     15 H11         -0.6460     0.0000     4.1000 ha         1 513       0.098000
     16 H4          -0.6100    -0.0000    -0.8950 h4         1 513       0.155000
     17 H61C        -2.5370    -0.3670     0.6800 hx         1 513       0.084200
     18 H62C        -2.1150    -0.6440     2.3750 hx         1 513       0.084200
     19 H71N        -2.2360     1.5390     2.8230 hn         1 513       0.224800
     20 H72N        -1.8700     2.0230     1.3060 hn         1 513       0.224800
     21 H73         -3.3680     1.4650     1.6460 hn         1 513       0.224800
@<TRIPOS>BOND
     1     1     3 1   
     2     1     6 2   
     3     1    16 1   
     4     2     9 1   
     5     2    19 1   
     6     2    20 1   
     7     2    21 1   
     8     3     4 1   
     9     4     5 ar  
    10     4     7 ar  
    11     5     6 1   
    12     5    11 ar  
    13     6     9 1   
    14     7     8 ar  
    15     7    13 1   
    16     8    10 ar  
    17     8    14 1   
    18     9    17 1   
    19     9    18 1   
    20    10    11 ar  
    21    10    12 1   
    22    11    15 1   
@<TRIPOS>SUBSTRUCTURE
     1 513         1 TEMP              0 ****  ****    0 ROOT
