@<TRIPOS>MOLECULE
molecule
   21    22     1     0     0
SMALL
bcc


@<TRIPOS>ATOM
      1 C4           0.0000     0.0000     0.0000 cc         1 513      -0.043400
      2 N7          -2.3930     1.3660     1.8500 nz         1 513      -0.811600
      3 S3           1.7520     0.0000     0.0000 ss         1 513       0.051500
      4 C2           1.8200     0.0000     1.7580 ca         1 513      -0.021100
      5 C1           0.5230    -0.0000     2.2780 ca         1 513      -0.088800
      6 C5          -0.4810     0.0000     1.2280 cd         1 513      -0.201400
      7 C8           2.9170    -0.0010     2.6250 ca         1 513      -0.068000
      8 C9           2.7210    -0.0020     3.9860 ca         1 513      -0.079000
      9 C6          -1.9600     0.0020     1.5190 c3         1 513       0.173000
     10 C10          1.4340    -0.0010     4.5070 ca         1 513       0.005100
     11 C11          0.3520     0.0000     3.6800 ca         1 513      -0.106000
     12 Br1          1.1810    -0.0040     6.3810 br         1 513      -0.044100
     13 H8           3.9230    -0.0010     2.2240 ha         1 513       0.162000
     14 H9           3.5740    -0.0030     4.6540 ha         1 513       0.171000
     15 H11         -0.6460     0.0000     4.1000 ha         1 513       0.124000
     16 H4          -0.6100    -0.0000    -0.8950 h4         1 513       0.183000
     17 H61C        -2.5370    -0.3670     0.6800 hx         1 513       0.113700
     18 H62C        -2.1150    -0.6440     2.3750 hx         1 513       0.113700
     19 H71N        -2.2360     1.5390     2.8230 hn         1 513       0.455467
     20 H72N        -1.8700     2.0230     1.3060 hn         1 513       0.455467
     21 H73         -3.3680     1.4650     1.6460 hn         1 513       0.455467
@<TRIPOS>BOND
     1     7     8 ar
     2     7     4 ar
     3     8    10 ar
     4    11     5 ar
     5    11    10 ar
     6     1     6 2
     7     1     3 1
     8     5     6 1
     9     5     4 ar
    10     6     9 1
    11     4     3 1
    12    10    12 1
    13     9     2 1
    14     7    13 1
    15     8    14 1
    16    11    15 1
    17     1    16 1
    18     9    17 1
    19     9    18 1
    20     2    19 1
    21     2    20 1
    22    21     2 1
@<TRIPOS>SUBSTRUCTURE
     1 513         1 TEMP              0 ****  ****    0 ROOT
