@<TRIPOS>MOLECULE
514
   31    33     1     0     0
SMALL
bcc


@<TRIPOS>ATOM
      1 O1           0.0000     0.0000     0.0000 o          1 514      -0.463100
      2 C2           2.5780    -0.0050    -4.8360 cc         1 514       0.502300
      3 N3           4.4880    -0.0010    -3.7910 nd         1 514      -0.227000
      4 N4           3.9480    -0.0070    -4.9550 nd         1 514      -0.109000
      5 C5          -0.6030    -0.2650    -6.6110 ca         1 514      -0.210600
      6 C6          -1.9610    -0.4080    -6.3180 ca         1 514      -0.020000
      7 C7          -0.1820    -0.2270    -7.9440 ca         1 514      -0.020000
      8 C8           0.3840    -0.1490    -5.5170 cf         1 514       0.616900
      9 C9          -2.8780    -0.5110    -7.3440 ca         1 514      -0.112500
     10 C10         -1.1080    -0.3300    -8.9590 ca         1 514      -0.112500
     11 O11          0.0150    -0.1770    -4.3600 o          1 514      -0.640300
     12 N12          1.6930    -0.0100    -5.8030 ne         1 514      -0.080000
     13 C13         -2.4530    -0.4720    -8.6620 ca         1 514      -0.020000
     14 C14          3.5810    -0.0050    -2.8020 cc         1 514       0.434600
     15 C15          2.3180    -0.0040    -3.3700 cc         1 514      -0.442600
     16 C16          1.3470    -0.0030    -2.3570 c2         1 514       0.137600
     17 N17          1.8830    -0.0020    -1.1600 n          1 514       0.174000
     18 C18          3.3460    -0.0030    -1.3100 c3         1 514      -0.046300
     19 C19          1.2140     0.0000     0.0000 c          1 514       0.536100
     20 C20          1.9680     0.0000     1.3050 c3         1 514      -0.058100
     21 H6          -2.2940    -0.4390    -5.2870 ha         1 514       0.119500
     22 H7           0.8700    -0.1150    -8.1780 ha         1 514       0.119500
     23 H9          -3.9310    -0.6220    -7.1180 ha         1 514       0.122000
     24 H10         -0.7830    -0.3000    -9.9920 ha         1 514       0.122000
     25 H13         -3.1770    -0.5530    -9.4640 ha         1 514       0.116000
     26 H16          0.3910     0.4810    -2.5230 h4         1 514       0.206000
     27 H181         3.7560    -0.9060    -0.8760 h1         1 514       0.103200
     28 H182         3.7570     0.9010    -0.8780 h1         1 514       0.103200
     29 H201         2.5900    -0.8850     1.3630 hc         1 514       0.050367
     30 H202         1.2640     0.0010     2.1280 hc         1 514       0.050367
     31 H203         2.5920     0.8840     1.3610 hc         1 514       0.050367
@<TRIPOS>BOND
     1     1    19 2   
     2     2     4 2   
     3     2    12 1   
     4     2    15 1   
     5     3     4 1   
     6     3    14 2   
     7     5     6 ar  
     8     5     7 ar  
     9     5     8 1   
    10     6     9 ar  
    11     6    21 1   
    12     7    10 ar  
    13     7    22 1   
    14     8    11 1   
    15     8    12 2   
    16     9    13 ar  
    17     9    23 1   
    18    10    13 ar  
    19    10    24 1   
    20    13    25 1   
    21    14    15 1   
    22    14    18 1   
    23    15    16 2   
    24    16    17 1   
    25    16    26 1   
    26    17    18 1   
    27    17    19 1   
    28    18    27 1   
    29    18    28 1   
    30    19    20 1   
    31    20    29 1   
    32    20    30 1   
    33    20    31 1   
@<TRIPOS>SUBSTRUCTURE
     1 514         1 TEMP              0 ****  ****    0 ROOT
