@<TRIPOS>MOLECULE
molecule
   87    91     1     0     0
SMALL
bcc


@<TRIPOS>ATOM
      1 C1           0.0000     0.0000     0.0000 ca         1 515      -0.018000
      2 C2           1.4110     0.0000     0.0000 ca         1 515       0.166600
      3 C3           2.0880     0.0000     1.2010 ca         1 515      -0.123000
      4 C4           1.3940     0.0010     2.4070 ca         1 515      -0.083000
      5 C5           0.0330     0.0020     2.4360 ca         1 515      -0.135300
      6 C6          -0.6930    -0.0040     1.2350 ca         1 515      -0.011000
      7 N4           2.1160    -0.0020    -1.2040 n          1 515      -0.315200
      8 C9          -0.9370     1.4450     4.2030 c3         1 515       0.058700
      9 N1           0.3460     2.1350     4.3510 ns         1 515      -0.568900
     10 C10          1.2620     1.6740     5.2260 c          1 515       0.665100
     11 C11         -1.6620     1.4460     5.5230 c          1 515       0.637100
     12 N2          -3.0100     1.4460     5.5520 ns         1 515      -0.597900
     13 C12         -3.7150     1.4480     6.8360 c3         1 515       0.114000
     14 C13         -5.2260     1.4480     6.5880 c3         1 515      -0.100400
     15 C14         -8.2090     1.4510     9.0220 c3         1 515       0.103400
     16 C15         -5.9630     1.4490     7.9290 c3         1 515      -0.078400
     17 O1          -9.6190     1.4520     8.7910 os         1 515      -0.227900
     18 O4           1.0230     0.6900     5.8910 o          1 515      -0.584100
     19 C23          2.5820     2.3840     5.3790 c3         1 515      -0.168100
     20 C8           2.3520    -1.1630    -1.8450 c          1 515       0.604100
     21 O8          -1.0340     1.4470     6.5600 o          1 515      -0.584100
     22 C7          -0.6920     0.0030     3.7570 c3         1 515      -0.038100
     23 O5           2.9650    -1.1650    -2.8940 o          1 515      -0.608100
     24 C24          1.8600    -2.4480    -1.2670 c          1 515       0.842600
     25 O6           1.2480    -2.4470    -0.2200 o          1 515      -0.816800
     26 C25          3.9020     1.5990    -1.5390 ca         1 515      -0.093600
     27 C26          2.5740     1.1960    -1.7440 ca         1 515       0.098600
     28 C27          1.7170     2.0020    -2.4840 ca         1 515      -0.156000
     29 C28          2.1740     3.1900    -3.0170 ca         1 515      -0.160000
     30 C29          3.4870     3.5880    -2.8220 ca         1 515      -0.180000
     31 C30          4.3510     2.8020    -2.0920 ca         1 515      -0.099000
     32 O9           4.4610    -0.3400    -0.3730 o          1 515      -0.831300
     33 O10          6.0620     1.1960    -0.4670 o          1 515      -0.831300
     34 C32        -10.2170     1.4520    10.0100 ca         1 515       0.169100
     35 C33         -9.4500     1.4530    11.1360 ca         1 515      -0.282000
     36 C34        -10.0610     1.4550    12.4010 ca         1 515      -0.002000
     37 C35        -11.4770     1.4550    12.4990 ca         1 515      -0.076000
     38 C36        -12.2520     1.4530    11.3330 ca         1 515      -0.076000
     39 C37        -11.6250     1.4590    10.0960 ca         1 515      -0.115600
     40 C38        -12.4350     1.4580     8.8640 c          1 515       0.880200
     41 O11        -13.7800     1.4510     8.9420 o          1 515      -0.827300
     42 O12        -11.8900     1.4630     7.7790 o          1 515      -0.827300
     43 C16         -0.7280    -0.0020    -1.2000 ca         1 515      -0.069000
     44 C17         -2.0890    -0.0010    -1.1620 ca         1 515      -0.175000
     45 C18         -2.7730    -0.0010     0.0520 ca         1 515      -0.141000
     46 C19         -2.1000     0.0020     1.2350 ca         1 515      -0.146000
     47 C20         -7.4720     1.4490     7.6810 c3         1 515      -0.083400
     48 O2           2.0970    -3.6080    -1.9070 o          1 515      -0.816800
     49 C41         -9.2900     1.4550    13.5780 ca         1 515      -0.129000
     50 C42         -9.9090     1.4560    14.7890 ca         1 515      -0.144000
     51 C43        -11.3000     1.4570    14.8860 ca         1 515      -0.173000
     52 C44        -12.0790     1.4560    13.7710 ca         1 515      -0.099000
     53 H31          3.1710    -0.0010     1.2050 ha         1 515       0.194000
     54 H41          1.9470     0.0010     3.3390 ha         1 515       0.116000
     55 H91         -1.5380     1.9560     3.4610 h1         1 515       0.060700
     56 H1           0.5260     2.9730     3.8350 hn         1 515       0.313500
     57 H2          -3.5280     1.4740     4.6960 hn         1 515       0.311500
     58 H121        -3.4420     2.3330     7.3970 h1         1 515       0.046200
     59 H122        -3.4420     0.5640     7.3990 h1         1 515       0.046200
     60 H131        -5.4990     2.3320     6.0250 hc         1 515       0.047700
     61 H132        -5.4990     0.5630     6.0260 hc         1 515       0.047700
     62 H141        -7.9340     2.3350     9.5840 h1         1 515       0.031200
     63 H142        -7.9360     0.5660     9.5850 h1         1 515       0.031200
     64 H151        -5.6900     0.5650     8.4920 hc         1 515       0.039200
     65 H152        -5.6890     2.3340     8.4910 hc         1 515       0.039200
     66 H231         2.5400     3.0460     6.2360 hc         1 515       0.054700
     67 H232         2.7870     2.9630     4.4860 hc         1 515       0.054700
     68 H233         3.3700     1.6550     5.5250 hc         1 515       0.054700
     69 H71         -1.6420    -0.5070     3.6470 hc         1 515       0.068700
     70 H72         -0.0910    -0.5080     4.4990 hc         1 515       0.068700
     71 H271         0.6890     1.6980    -2.6410 ha         1 515       0.118000
     72 H281         1.5030     3.8150    -3.5930 ha         1 515       0.090000
     73 H291         3.8360     4.5210    -3.2470 ha         1 515       0.088000
     74 H301         5.3750     3.1200    -1.9410 ha         1 515       0.143000
     75 H331        -8.3700     1.4530    11.0570 ha         1 515       0.132000
     76 H361       -13.3330     1.4580    11.3960 ha         1 515       0.162000
     77 H161        -0.2100    -0.0030    -2.1510 ha         1 515       0.145000
     78 H171        -2.6490    -0.0030    -2.0900 ha         1 515       0.103000
     79 H181        -3.8560    -0.0000     0.0540 ha         1 515       0.096000
     80 H191        -2.6440     0.0020     2.1720 ha         1 515       0.104000
     81 H201        -7.7450     2.3340     7.1180 hc         1 515       0.059200
     82 H202        -7.7450     0.5650     7.1190 hc         1 515       0.059200
     83 H411        -8.2090     1.4550    13.5190 ha         1 515       0.117000
     84 H421        -9.3120     1.4570    15.6920 ha         1 515       0.103000
     85 H431       -11.7670     1.4570    15.8630 ha         1 515       0.103000
     86 H441       -13.1590     1.4560    13.8620 ha         1 515       0.121000
     87 C31          4.8220     0.7540    -0.7580 c          1 515       0.881200
@<TRIPOS>BOND
     1     1     2 ar
     2     1     6 ar
     3     1    43 ar
     4     2     3 ar
     5     2     7 1
     6     3     4 ar
     7     3    53 1
     8     4     5 ar
     9     4    54 1
    10     5     6 ar
    11     5    22 1
    12     6    46 ar
    13     7    20 1
    14     7    27 1
    15     8     9 1
    16     8    11 1
    17     8    22 1
    18     8    55 1
    19     9    10 1
    20     9    56 1
    21    10    18 2
    22    10    19 1
    23    11    12 1
    24    11    21 2
    25    12    13 1
    26    12    57 1
    27    13    14 1
    28    13    58 1
    29    13    59 1
    30    14    16 1
    31    14    60 1
    32    14    61 1
    33    15    17 1
    34    15    47 1
    35    15    62 1
    36    15    63 1
    37    16    47 1
    38    16    64 1
    39    16    65 1
    40    17    34 1
    41    19    66 1
    42    19    67 1
    43    19    68 1
    44    20    23 2
    45    20    24 1
    46    22    69 1
    47    22    70 1
    48    24    25 1
    49    24    48 1
    50    26    27 ar
    51    26    31 ar
    52    26    87 1
    53    27    28 ar
    54    28    29 ar
    55    28    71 1
    56    29    30 ar
    57    29    72 1
    58    30    31 ar
    59    30    73 1
    60    31    74 1
    61    32    87 1
    62    33    87 1
    63    34    35 ar
    64    34    39 ar
    65    35    36 ar
    66    35    75 1
    67    36    37 ar
    68    36    49 ar
    69    37    38 ar
    70    37    52 ar
    71    38    39 ar
    72    38    76 1
    73    39    40 1
    74    40    41 1
    75    40    42 1
    76    43    44 ar
    77    43    77 1
    78    44    45 ar
    79    44    78 1
    80    45    46 ar
    81    45    79 1
    82    46    80 1
    83    47    81 1
    84    47    82 1
    85    49    50 ar
    86    49    83 1
    87    50    51 ar
    88    50    84 1
    89    51    52 ar
    90    51    85 1
    91    52    86 1
@<TRIPOS>SUBSTRUCTURE
     1 515         1 TEMP              0 ****  ****    0 ROOT
