@<TRIPOS>MOLECULE
516
   74    78     1     0     0
SMALL
bcc


@<TRIPOS>ATOM
      1 O16         1.7040    1.1080    0.3830 o         1 516     -0.718100
      2 C15         2.5540    0.1730    0.5010 c         1 516      0.693100
      3 C8          2.5220   -0.6140    1.8360 c3        1 516      0.077500
      4 C9          1.6970   -1.9200    1.7650 c3        1 516     -0.086700
      5 C10         1.8600   -2.7230    3.0560 c3        1 516     -0.086900
      6 C11         1.0060   -3.9770    3.0190 c3        1 516     -0.079400
      7 C12         1.3380   -4.8390    1.8210 c3        1 516     -0.089400
      8 C13         1.2450   -4.0460    0.5360 c3        1 516     -0.079400
      9 C14         2.1090   -2.7990    0.5890 c3        1 516     -0.086900
     10 N7          1.9690    0.2810    2.9470 n4        1 516     -0.660800
     11 C5          1.4290    1.6170    2.5230 c         1 516      0.551100
     12 O6          2.2220    2.5530    2.5210 o         1 516     -0.430100
     13 C3         -0.0840    1.8170    2.3020 c3        1 516      0.102500
     14 C4         -0.8610    0.5350    2.0610 c3        1 516     -0.157100
     15 N2         -0.2710    2.7910    1.1610 n4        1 516     -0.754000
     16 C1         -1.5550    3.5230    1.2410 c3        1 516      0.077100
     17 N17         3.4860   -0.0600   -0.4410 n         1 516     -0.378800
     18 C18         3.4100    0.5700   -1.7760 c3        1 516      0.085400
     19 C19         4.7720    0.3030   -2.4560 c3        1 516     -0.094400
     20 C20         5.5860   -0.5700   -1.5080 c3        1 516     -0.087400
     21 C21         4.6850   -0.8780   -0.3020 c3        1 516      0.070000
     22 C22         2.2560    0.0830   -2.6060 cc        1 516      0.282700
     23 S23         2.3180    0.0020   -4.3110 ss        1 516      0.064700
     24 C24         0.7390   -0.4890   -4.3810 cc        1 516     -0.240400
     25 C25         0.1880   -0.5950   -3.0980 cd        1 516      0.392800
     26 N26         1.0710   -0.2660   -2.0780 nd        1 516     -0.660000
     27 C27        -1.1770   -1.0390   -2.8110 ca        1 516     -0.133500
     28 C28        -1.3710   -2.1840   -2.0640 ca        1 516     -0.108000
     29 C29        -2.6750   -2.6630   -1.8060 ca        1 516     -0.148000
     30 C30        -3.7690   -1.9880   -2.2890 ca        1 516     -0.091000
     31 C31        -3.6030   -0.7970   -3.0470 ca        1 516     -0.046000
     32 C33        -4.7300   -0.0930   -3.5570 ca        1 516     -0.109000
     33 C32        -2.2970   -0.3090   -3.3150 ca        1 516     -0.025000
     34 C36        -2.1580    0.8820   -4.0790 ca        1 516     -0.147000
     35 C35        -3.2610    1.5440   -4.5600 ca        1 516     -0.108000
     36 C34        -4.5630    1.0510   -4.2980 ca        1 516     -0.120000
     37 H8          3.5810   -0.8750    2.1480 hx        1 516      0.129700
     38 H9          0.6090   -1.6600    1.6230 hc        1 516      0.072700
     39 H10         2.9370   -3.0120    3.1810 hc        1 516      0.052950
     40 H10A        1.5640   -2.1270    3.9580 hc        1 516      0.052950
     41 H11        -0.0790   -3.6920    2.9910 hc        1 516      0.063700
     42 H11A        1.1760   -4.5610    3.9630 hc        1 516      0.063700
     43 H12         0.6290   -5.7080    1.7790 hc        1 516      0.070700
     44 H12A        2.3720   -5.2590    1.9340 hc        1 516      0.070700
     45 H13         1.5840   -4.6830   -0.3250 hc        1 516      0.063700
     46 H13A        0.1790   -3.7580    0.3390 hc        1 516      0.063700
     47 H14         1.9930   -2.2430   -0.3760 hc        1 516      0.052950
     48 H14A        3.1810   -3.1070    0.7130 hc        1 516      0.052950
     49 HN7         1.2280   -0.2380    3.4380 hn        1 516      0.475300
     50 H3         -0.4650    2.3270    3.2460 hx        1 516      0.142700
     51 H4         -0.8150   -0.1240    2.9630 hc        1 516      0.100700
     52 H4A        -0.4700   -0.0120    1.1630 hc        1 516      0.100700
     53 H4B        -1.9470    0.7570    1.8850 hc        1 516      0.100700
     54 HN2        -0.2150    2.2540    0.2740 hn        1 516      0.488300
     55 H1         -1.5920    4.1350    2.1830 hx        1 516      0.120700
     56 H1A        -2.4140    2.7990    1.2230 hx        1 516      0.120700
     57 H1B        -1.6290    4.2080    0.3490 hx        1 516      0.120700
     58 H18         3.2630    1.6820   -1.6110 h1        1 516      0.093700
     59 H19         5.2920    1.2760   -2.6450 hc        1 516      0.085200
     60 H19A        4.6340   -0.2100   -3.4430 hc        1 516      0.085200
     61 H20         6.5120   -0.0390   -1.1740 hc        1 516      0.086700
     62 H20A        5.8980   -1.5230   -2.0050 hc        1 516      0.086700
     63 H21         4.4120   -1.9690   -0.2960 h1        1 516      0.066700
     64 H21A        5.2060   -0.6260    0.6620 h1        1 516      0.066700
     65 H24         0.1960   -0.7120   -5.3020 h4        1 516      0.214000
     66 H28        -0.5090   -2.7520   -1.6820 ha        1 516      0.129000
     67 H29        -2.7990   -3.5950   -1.2330 ha        1 516      0.143000
     68 H30        -4.7890   -2.3630   -2.1100 ha        1 516      0.151000
     69 H33        -5.7360   -0.4930   -3.3560 ha        1 516      0.150000
     70 H36        -1.1460    1.2560   -4.2970 ha        1 516      0.130000
     71 H35        -3.1480    2.4560   -5.1660 ha        1 516      0.146000
     72 H34        -5.4330    1.5900   -4.7050 ha        1 516      0.153000
     73 H72         2.7400    0.4610    3.6090 hn        1 516      0.475300
     74 H22         0.5140    3.4620    1.1620 hn        1 516      0.488300
@<TRIPOS>BOND
     1    1    2 2
     2    2    3 1
     3    2   17 1
     4    3    4 1
     5    3   10 1
     6    3   37 1
     7    4    5 1
     8    4    9 1
     9    4   38 1
    10    5    6 1
    11    5   39 1
    12    5   40 1
    13    6    7 1
    14    6   41 1
    15    6   42 1
    16    7    8 1
    17    7   43 1
    18    7   44 1
    19    8    9 1
    20    8   45 1
    21    8   46 1
    22    9   47 1
    23    9   48 1
    24   10   11 1
    25   10   49 1
    26   10   73 1
    27   11   12 2
    28   11   13 1
    29   13   14 1
    30   13   15 1
    31   13   50 1
    32   14   51 1
    33   14   52 1
    34   14   53 1
    35   15   16 1
    36   15   54 1
    37   15   74 1
    38   16   55 1
    39   16   56 1
    40   16   57 1
    41   17   18 1
    42   17   21 1
    43   18   19 1
    44   18   22 1
    45   18   58 1
    46   19   20 1
    47   19   59 1
    48   19   60 1
    49   20   21 1
    50   20   61 1
    51   20   62 1
    52   21   63 1
    53   21   64 1
    54   22   23 1
    55   22   26 2
    56   23   24 1
    57   24   25 2
    58   24   65 1
    59   25   26 1
    60   25   27 1
    61   27   28 ar
    62   27   33 ar
    63   28   29 ar
    64   28   66 1
    65   29   30 ar
    66   29   67 1
    67   30   31 ar
    68   30   68 1
    69   31   32 ar
    70   31   33 ar
    71   32   36 ar
    72   32   69 1
    73   33   34 ar
    74   34   35 ar
    75   34   70 1
    76   35   36 ar
    77   35   71 1
    78   36   72 1
@<TRIPOS>SUBSTRUCTURE
     1 516         1 TEMP              0 ****  ****    0 ROOT
