@<TRIPOS>MOLECULE
517
   36    38     1     0     0
SMALL
bcc


@<TRIPOS>ATOM
      1 N22        -0.2050    0.5780   -0.0680 na        1 517     -0.178100
      2 C24         1.1660    0.4080   -0.2220 cc        1 517     -0.145300
      3 C25         1.6720   -0.2310    0.9190 cd        1 517     -0.189000
      4 C26         0.5710   -0.4360    1.8120 cd        1 517     -0.152000
      5 C21        -0.5780    0.0820    1.1880 cc        1 517     -0.167600
      6 C19        -1.9740    0.1270    1.7070 c3        1 517      0.062800
      7 C20        -2.0260    0.8690    3.0350 c3        1 517     -0.096100
      8 C5         -2.5070   -1.2470    1.8390 cc        1 517     -0.041400
      9 C7         -3.4190   -1.9130    1.0740 ca        1 517     -0.163000
     10 C8         -4.1760   -1.5470   -0.0790 ca        1 517     -0.026000
     11 C3         -2.0870   -2.2470    2.9450 c         1 517      0.655700
     12 O4         -1.2910   -2.0440    3.8490 o         1 517     -0.403100
     13 N1         -2.8250   -3.4990    2.7220 nc        1 517     -0.271400
     14 C6         -3.5730   -3.2970    1.6630 ca        1 517      0.049000
     15 C11        -4.4960   -4.2060    1.0070 ca        1 517     -0.057000
     16 C10        -5.1810   -3.8070   -0.0840 ca        1 517     -0.128000
     17 C9         -5.0290   -2.4600   -0.6390 ca        1 517     -0.029400
     18 N12        -5.8530   -2.1630   -1.7660 n         1 517     -0.393100
     19 C14        -5.5070   -1.2300   -2.6960 c         1 517      0.637100
     20 O15        -4.6240   -0.3680   -2.6880 o         1 517     -0.478100
     21 N16        -6.3930   -1.1370   -3.9610 n4        1 517     -0.759400
     22 HN22       -0.7900    1.0910   -0.6700 hn        1 517      0.286700
     23 H24         1.6810    0.7430   -1.1230 h4        1 517      0.171000
     24 H25         2.7050   -0.5150    1.0960 ha        1 517      0.165000
     25 H26         0.6090   -0.9020    2.7950 ha        1 517      0.170000
     26 H19        -2.6350    0.6830    0.9750 hc        1 517      0.049700
     27 H201       -3.0720    0.9020    3.4200 hc        1 517      0.059033
     28 H202       -1.3750    0.3620    3.7910 hc        1 517      0.059033
     29 H203       -1.6580    1.9130    2.8930 hc        1 517      0.059033
     30 H8         -4.0340   -0.5290   -0.4820 ha        1 517      0.164000
     31 H11        -4.6100   -5.2210    1.4270 ha        1 517      0.183000
     32 H10        -5.8780   -4.5050   -0.5760 ha        1 517      0.144000
     33 HN12       -6.5880   -2.8170   -1.9440 hn        1 517      0.351500
     34 H161       -7.3670   -0.9410   -3.7210 hn        1 517      0.471133
     35 H162       -6.0230   -0.3590   -4.5260 hn        1 517      0.471133
     36 H163       -6.3430   -1.9990   -4.5080 hn        1 517      0.471133
@<TRIPOS>BOND
     1    1    2 1   
     2    1    5 1   
     3    1   22 1   
     4    2    3 2   
     5    2   23 1   
     6    3    4 1   
     7    3   24 1   
     8    4    5 2   
     9    4   25 1   
    10    5    6 1   
    11    6    7 1   
    12    6    8 1   
    13    6   26 1   
    14    7   27 1   
    15    7   28 1   
    16    7   29 1   
    17    8    9 2   
    18    8   11 1   
    19    9   10 ar  
    20    9   14 ar  
    21   10   17 ar  
    22   10   30 1   
    23   11   12 2   
    24   11   13 1   
    25   13   14 2   
    26   14   15 ar  
    27   15   16 ar  
    28   15   31 1   
    29   16   17 ar  
    30   16   32 1   
    31   17   18 1   
    32   18   19 1   
    33   18   33 1   
    34   19   20 2   
    35   19   21 1   
    36   21   34 1   
    37   21   35 1   
    38   21   36 1   
@<TRIPOS>SUBSTRUCTURE
     1 517         1 TEMP              0 ****  ****    0 ROOT
