@<TRIPOS>MOLECULE
518
   68    72     1     0     0
SMALL
bcc


@<TRIPOS>ATOM
      1 C1          0.3480    0.0470   -0.2660 ca        1 518      0.213600
      2 C2          1.7570   -0.1030   -0.0740 ca        1 518     -0.211000
      3 C3          2.3210    0.0970    1.1620 ca        1 518      0.001000
      4 C4          1.5380    0.4580    2.2900 ca        1 518     -0.307500
      5 C5          0.1380    0.6090    2.1060 ca        1 518      0.001000
      6 C6         -0.4410    0.4120    0.8760 ca        1 518     -0.211000
      7 C7          2.1090    0.6660    3.5580 cc        1 518      0.560200
      8 C8          1.5290    1.0340    4.8180 cd        1 518     -0.309300
      9 C9          2.5550    1.1060    5.7530 cd        1 518     -0.008300
     10 C10         3.7750    0.7810    5.0760 cc        1 518      0.032200
     11 O11         3.4850    0.5070    3.7070 os        1 518     -0.404800
     12 C12         5.0760    0.7140    5.5430 c         1 518      0.481600
     13 O13         5.5480    0.9020    6.6800 o         1 518     -0.630100
     14 N14         6.1550    0.3510    4.5030 n4        1 518     -0.668800
     15 C15         7.4250   -0.0990    5.1490 c3        1 518      0.074500
     16 C16         8.0260    1.0650    5.9510 c         1 518      0.532100
     17 C17         8.4760   -0.6160    4.1410 c3        1 518     -0.090700
     18 N18         8.2970    0.8060    7.4040 n4        1 518     -0.654800
     19 O19         8.2800    2.1690    5.4980 o         1 518     -0.377100
     20 N20        -0.2830   -0.1370   -1.4690 n         1 518     -0.438100
     21 C21         9.1780    1.8250    8.0280 c3        1 518      0.080100
     22 C22         8.0810   -1.9960    3.6280 c3        1 518     -0.088400
     23 C23         9.1820   -2.5500    2.7410 c3        1 518     -0.079400
     24 C24         9.5090   -1.6080    1.6020 c3        1 518     -0.090400
     25 C25         9.8390   -0.2170    2.1020 c3        1 518     -0.079400
     26 C26         8.7240    0.3300    2.9760 c3        1 518     -0.088400
     27 C27         0.3030   -0.4990   -2.7080 c         1 518      0.726300
     28 C28        -0.6030   -0.6250   -3.8470 cc        1 518     -0.110100
     29 O29         1.5230   -0.7000   -2.8160 o         1 518     -0.551100
     30 O30        -1.9850   -0.3830   -3.6460 os        1 518     -0.217200
     31 C31        -0.3260   -0.9580   -5.1580 cd        1 518     -0.005200
     32 C32        -1.5870   -0.9360   -5.8660 ca        1 518     -0.147800
     33 C33        -2.5760   -0.5780   -4.8960 ca        1 518      0.096100
     34 C34        -3.9280   -0.4520   -5.1980 ca        1 518     -0.133000
     35 C35        -4.2870   -0.6970   -6.5220 ca        1 518     -0.071000
     36 C36        -3.3350   -1.0500   -7.4940 ca        1 518     -0.144000
     37 C37        -1.9850   -1.1740   -7.1830 ca        1 518     -0.051000
     38 H2          2.4040   -0.3820   -0.9250 ha        1 518      0.184500
     39 H3          3.4090   -0.0220    1.2870 ha        1 518      0.144500
     40 H5         -0.4940    0.8880    2.9660 ha        1 518      0.144500
     41 H6         -1.5330    0.5380    0.7700 ha        1 518      0.184500
     42 H8          0.4680    1.2210    4.9870 ha        1 518      0.206000
     43 H9          2.4810    1.3600    6.8140 ha        1 518      0.202000
     44 HN14        6.3350    1.1730    3.9110 hn        1 518      0.476300
     45 H15         7.1410   -0.9530    5.8400 hx        1 518      0.129700
     46 H17         9.4390   -0.7230    4.7230 hc        1 518      0.089700
     47 HN20       -1.2780    0.0000   -1.4830 hn        1 518      0.356500
     48 H21         8.7150    2.8450    7.9120 hx        1 518      0.124700
     49 H21A        9.2930    1.5810    9.1200 hx        1 518      0.124700
     50 H22         7.9070   -2.6940    4.4880 hc        1 518      0.049700
     51 H22A        7.1310   -1.9310    3.0360 hc        1 518      0.049700
     52 H23         8.8520   -3.5410    2.3290 hc        1 518      0.070450
     53 H23A       10.1020   -2.7340    3.3570 hc        1 518      0.070450
     54 H24         8.6410   -1.5580    0.8930 hc        1 518      0.069200
     55 H24A       10.3850   -2.0130    1.0270 hc        1 518      0.069200
     56 H25        10.7980   -0.2390    2.6830 hc        1 518      0.070450
     57 H25A        9.9910    0.4720    1.2300 hc        1 518      0.070450
     58 H26         9.0020    1.3490    3.3540 hc        1 518      0.049700
     59 H26A        7.8010    0.4300    2.3470 hc        1 518      0.049700
     60 H31         0.6510   -1.1930   -5.5830 ha        1 518      0.188000
     61 H34        -4.6670   -0.1760   -4.4350 ha        1 518      0.160000
     62 H35        -5.3460   -0.6110   -6.8160 ha        1 518      0.155000
     63 H36        -3.6720   -1.2330   -8.5270 ha        1 518      0.155000
     64 H37        -1.2480   -1.4510   -7.9510 ha        1 518      0.155000
     65 H28         8.7170   -0.1260    7.5110 hn        1 518      0.484300
     66 H29        10.1820    1.8180    7.5240 hx        1 518      0.124700
     67 H142        5.8070   -0.4060    3.8980 hn        1 518      0.476300
     68 H182        7.3760    0.8070    7.8840 hn        1 518      0.484300
@<TRIPOS>BOND
     1    1    2 ar  
     2    1    6 ar  
     3    1   20 1   
     4    2    3 ar  
     5    2   38 1   
     6    3    4 ar  
     7    3   39 1   
     8    4    5 ar  
     9    4    7 1   
    10    5    6 ar  
    11    5   40 1   
    12    6   41 1   
    13    7    8 2   
    14    7   11 1   
    15    8    9 1   
    16    8   42 1   
    17    9   10 2   
    18    9   43 1   
    19   10   11 1   
    20   10   12 1   
    21   12   13 2   
    22   12   14 1   
    23   14   15 1   
    24   14   44 1   
    25   14   67 1   
    26   15   16 1   
    27   15   17 1   
    28   15   45 1   
    29   16   18 1   
    30   16   19 2   
    31   17   22 1   
    32   17   26 1   
    33   17   46 1   
    34   18   21 1   
    35   18   65 1   
    36   18   68 1   
    37   20   27 1   
    38   20   47 1   
    39   21   48 1   
    40   21   49 1   
    41   21   66 1   
    42   22   23 1   
    43   22   50 1   
    44   22   51 1   
    45   23   24 1   
    46   23   52 1   
    47   23   53 1   
    48   24   25 1   
    49   24   54 1   
    50   24   55 1   
    51   25   26 1   
    52   25   56 1   
    53   25   57 1   
    54   26   58 1   
    55   26   59 1   
    56   27   28 1   
    57   27   29 2   
    58   28   30 1   
    59   28   31 2   
    60   30   33 1   
    61   31   32 1   
    62   31   60 1   
    63   32   33 ar  
    64   32   37 ar  
    65   33   34 ar  
    66   34   35 ar  
    67   34   61 1   
    68   35   36 ar  
    69   35   62 1   
    70   36   37 ar  
    71   36   63 1   
    72   37   64 1   
@<TRIPOS>SUBSTRUCTURE
     1 518         1 TEMP              0 ****  ****    0 ROOT
