@<TRIPOS>MOLECULE
519
   58    60     1     0     0
SMALL
bcc


@<TRIPOS>ATOM
      1 C01          0.0000     0.0000     0.0000 c3         1 519      -0.013600
      2 C02          1.5310     0.0000     0.0000 c3         1 519       0.031700
      3 C03          2.0410     0.0000     1.4420 c3         1 519      -0.013600
      4 N04          2.0190    -1.1950    -0.6920 ns         1 519      -0.215900
      5 C05          2.1470    -1.1940    -2.0330 c          1 519       0.581100
      6 O06          1.8570    -0.1990    -2.6700 o          1 519      -0.709100
      7 N07          2.5960    -2.2950    -2.6690 ns         1 519      -0.216900
      8 C08          2.7350    -2.2920    -4.1270 c3         1 519       0.030700
      9 C09          1.3930    -2.6490    -4.7690 c3         1 519      -0.035400
     10 C10          1.5390    -2.6470    -6.2910 c3         1 519      -0.032400
     11 C11          2.5910    -3.6780    -6.7040 c3         1 519       0.125500
     12 C12          3.9330    -3.3210    -6.0640 c3         1 519      -0.032400
     13 C13          3.7880    -3.3230    -4.5410 c3         1 519      -0.035400
     14 N14          2.7300    -3.6760    -8.1630 nu         1 519      -0.458900
     15 C15          3.1900    -4.8020    -8.8140 ca         1 519       0.760900
     16 N16          3.4940    -5.8770    -8.0950 nb         1 519      -0.729000
     17 C17          3.9330    -6.9830    -8.6680 ca         1 519       0.552200
     18 C18          4.0730    -7.0010   -10.0600 ca         1 519      -0.449400
     19 C19          4.5510    -8.1810   -10.7740 cc         1 519       0.026800
     20 C20          4.6570    -8.1160   -12.1270 cd         1 519      -0.244200
     21 C21          4.3110    -6.9310   -12.8090 c          1 519       0.613700
     22 O22          4.4150    -6.8950   -14.0220 o          1 519      -0.681500
     23 N23          3.8710    -5.8410   -12.1570 n          1 519       0.009700
     24 C24          3.5250    -4.6360   -12.9160 c3         1 519      -0.005300
     25 C25          4.7550    -4.1450   -13.6810 c3         1 519      -0.020100
     26 C26          2.4040    -4.9620   -13.9060 c3         1 519      -0.020100
     27 C27          3.7400    -5.8400   -10.7920 ca         1 519       0.462200
     28 N28          3.3060    -4.7740   -10.1330 nb         1 519      -0.747000
     29 H011        -0.3610    -0.9810     0.2850 hc         1 519       0.009533
     30 H012        -0.3610     0.2440    -0.9920 hc         1 519       0.009533
     31 H013        -0.3610     0.7370     0.7070 hc         1 519       0.009533
     32 H021         1.8910     0.8850    -0.5100 h1         1 519       0.056700
     33 H033         1.6160    -0.8410     1.9760 hc         1 519       0.009533
     34 H032         1.7490     0.9220     1.9290 hc         1 519       0.009533
     35 H031         3.1220    -0.0810     1.4420 hc         1 519       0.009533
     36 H041         2.2650    -2.0110    -0.1670 hn         1 519       0.165500
     37 H071         2.8610    -3.1030    -2.1420 hn         1 519       0.166500
     38 H081         3.0430    -1.3090    -4.4630 h1         1 519       0.061700
     39 H091         1.0870    -3.6340    -4.4380 hc         1 519       0.023450
     40 H092         0.6490    -1.9170    -4.4780 hc         1 519       0.023450
     41 H102         1.8490    -1.6640    -6.6220 hc         1 519       0.024200
     42 H101         0.5880    -2.9020    -6.7440 hc         1 519       0.024200
     43 H111         2.2820    -4.6600    -6.3680 h1         1 519       0.059700
     44 H122         4.6760    -4.0530    -6.3550 hc         1 519       0.024200
     45 H121         4.2390    -2.3360    -6.3950 hc         1 519       0.024200
     46 H132         4.7390    -3.0670    -4.0890 hc         1 519       0.023450
     47 H131         3.4780    -4.3070    -4.2100 hc         1 519       0.023450
     48 H141         2.4690    -2.8650    -8.6900 hn         1 519       0.302800
     49 H171         4.1790    -7.8560    -8.0750 h4         1 519      -0.016900
     50 H191         4.8140    -9.0860   -10.2390 ha         1 519       0.107000
     51 H201         5.0090    -8.9760   -12.6830 ha         1 519       0.136000
     52 H241         3.1910    -3.8630   -12.2350 h1         1 519       0.063700
     53 H251         4.8830    -4.7390   -14.5790 hc         1 519       0.019033
     54 H253         5.6330    -4.2440   -13.0550 hc         1 519       0.019033
     55 H252         4.6200    -3.1050   -13.9530 hc         1 519       0.019033
     56 H261         1.6830    -5.6170   -13.4330 hc         1 519       0.019033
     57 H262         2.8220    -5.4550   -14.7760 hc         1 519       0.019033
     58 H263         1.9140    -4.0450   -14.2120 hc         1 519       0.019033
@<TRIPOS>BOND
     1     1     2 1   
     2     1    29 1   
     3     1    30 1   
     4     1    31 1   
     5     2     3 1   
     6     2     4 1   
     7     2    32 1   
     8     3    33 1   
     9     3    34 1   
    10     3    35 1   
    11     4     5 1   
    12     4    36 1   
    13     5     6 2   
    14     5     7 1   
    15     7     8 1   
    16     7    37 1   
    17     8     9 1   
    18     8    13 1   
    19     8    38 1   
    20     9    10 1   
    21     9    39 1   
    22     9    40 1   
    23    10    11 1   
    24    10    41 1   
    25    10    42 1   
    26    11    12 1   
    27    11    14 1   
    28    11    43 1   
    29    12    13 1   
    30    12    44 1   
    31    12    45 1   
    32    13    46 1   
    33    13    47 1   
    34    14    15 1   
    35    14    48 1   
    36    15    16 ar  
    37    15    28 ar  
    38    16    17 ar  
    39    17    18 ar  
    40    17    49 1   
    41    18    19 1   
    42    18    27 ar  
    43    19    20 2   
    44    19    50 1   
    45    20    21 1   
    46    20    51 1   
    47    21    22 2   
    48    21    23 1   
    49    23    24 1   
    50    23    27 1   
    51    24    25 1   
    52    24    26 1   
    53    24    52 1   
    54    25    53 1   
    55    25    54 1   
    56    25    55 1   
    57    26    56 1   
    58    26    57 1   
    59    26    58 1   
    60    27    28 ar  
@<TRIPOS>SUBSTRUCTURE
     1 519         1 TEMP              0 ****  ****    0 ROOT
