@<TRIPOS>MOLECULE
51B
   49    52     1     0     0
SMALL
bcc


@<TRIPOS>ATOM
      1 N01          0.0000     0.0000     0.0000 nc         1 51B      -0.602100
      2 C02          1.3040     0.0000     0.0000 cd         1 51B       0.443200
      3 N03          2.0140     0.0000     1.1460 na         1 51B      -0.172000
      4 C04          1.3710    -0.0000     2.3610 cc         1 51B       0.048800
      5 C05         -0.0120     0.0000     2.3810 cd         1 51B      -0.269200
      6 C06         -0.6990     0.0000     1.1520 c          1 51B       0.697700
      7 O07         -1.9220     0.0000     1.1290 o          1 51B      -0.601100
      8 C08          2.0370    -0.0010    -1.3160 c3         1 51B      -0.081000
      9 C09          1.1430     0.6080    -2.3990 c3         1 51B       0.161800
     10 N10          1.8500     0.5890    -3.6870 n3         1 51B      -0.545600
     11 C11          2.1580    -0.7850    -4.1020 c3         1 51B       0.137800
     12 C12          3.0810    -1.4360    -3.0700 c3         1 51B      -0.019400
     13 C13          2.3900    -1.4400    -1.7040 c3         1 51B      -0.024400
     14 C14          2.1380    -0.0010     3.6120 cc         1 51B      -0.001900
     15 S15          3.8910    -0.0010     3.7340 ss         1 51B      -0.230800
     16 C16          3.8210    -0.0020     5.4390 cc         1 51B       0.000900
     17 C17          2.5540    -0.0020     5.8650 cd         1 51B      -0.129000
     18 C18          1.6030     0.0040     4.8690 cd         1 51B      -0.075000
     19 C19          1.0770     1.2910    -4.7210 c3         1 51B       0.240100
     20 C20          1.9300     1.4660    -5.9510 ca         1 51B      -0.415900
     21 C21          2.7240     2.5900    -6.1090 ca         1 51B       0.501200
     22 N22          3.4600     2.7130    -7.2010 nb         1 51B      -0.699500
     23 C23          3.4420     1.7750    -8.1380 ca         1 51B       0.719900
     24 N24          2.6940     0.6890    -8.0180 nb         1 51B      -0.699500
     25 C25          1.9390     0.5020    -6.9480 ca         1 51B       0.501200
     26 N26          4.2250     1.9360    -9.2680 nu         1 51B      -0.484900
     27 C27          4.2190     0.9110   -10.3150 c3         1 51B       0.202100
     28 H1          -0.5530    -0.0000     3.3200 ha         1 51B       0.145000
     29 H3           2.9460     0.5820    -1.2300 hc         1 51B       0.040700
     30 H4           0.9050     1.6310    -2.1350 h1         1 51B       0.031700
     31 H5           0.2310     0.0290    -2.4800 h1         1 51B       0.031700
     32 H7           2.6520    -0.7670    -5.0660 h1         1 51B       0.017700
     33 H8           1.2390    -1.3540    -4.1720 h1         1 51B       0.017700
     34 H9           3.2930    -2.4560    -3.3690 hc         1 51B       0.020700
     35 H10          4.0040    -0.8730    -3.0060 hc         1 51B       0.020700
     36 H11          3.0600    -1.8590    -0.9620 hc         1 51B       0.019700
     37 H12          1.4850    -2.0310    -1.7580 hc         1 51B       0.019700
     38 H13          4.6870    -0.0050     6.0890 h4         1 51B       0.155000
     39 H14          2.2940    -0.0010     6.9160 ha         1 51B       0.127000
     40 H15          0.5370     0.0060     5.0630 ha         1 51B       0.136000
     41 H16          0.1970     0.7110    -4.9710 h1         1 51B       0.014200
     42 H17          0.7760     2.2630    -4.3500 h1         1 51B       0.014200
     43 H18          2.7430     3.3600    -5.3470 h4         1 51B      -0.016400
     44 H19          1.3290    -0.3880    -6.8560 h4         1 51B      -0.016400
     45 H20          4.8060     2.7460    -9.3640 hn         1 51B       0.298800
     46 H21          4.8860     1.2080   -11.1150 h1         1 51B       0.008700
     47 H22          3.2140     0.7990   -10.7040 h1         1 51B       0.008700
     48 H23          4.5520    -0.0320    -9.8990 h1         1 51B       0.008700
     49 H24          3.0140    -0.0000     1.1120 hn         1 51B       0.292800
@<TRIPOS>BOND
     1     1     2 2   
     2     1     6 1   
     3     2     3 1   
     4     2     8 1   
     5     3     4 1   
     6     3    49 1   
     7     4     5 2   
     8     4    14 1   
     9     5     6 1   
    10     5    28 1   
    11     6     7 2   
    12     8     9 1   
    13     8    13 1   
    14     8    29 1   
    15     9    10 1   
    16     9    30 1   
    17     9    31 1   
    18    10    11 1   
    19    10    19 1   
    20    11    12 1   
    21    11    32 1   
    22    11    33 1   
    23    12    13 1   
    24    12    34 1   
    25    12    35 1   
    26    13    36 1   
    27    13    37 1   
    28    14    15 1   
    29    14    18 2   
    30    15    16 1   
    31    16    17 2   
    32    16    38 1   
    33    17    18 1   
    34    17    39 1   
    35    18    40 1   
    36    19    20 1   
    37    19    41 1   
    38    19    42 1   
    39    20    21 ar  
    40    20    25 ar  
    41    21    22 ar  
    42    21    43 1   
    43    22    23 ar  
    44    23    24 ar  
    45    23    26 1   
    46    24    25 ar  
    47    25    44 1   
    48    26    27 1   
    49    26    45 1   
    50    27    46 1   
    51    27    47 1   
    52    27    48 1   
@<TRIPOS>SUBSTRUCTURE
     1 51B         1 TEMP              0 ****  ****    0 ROOT
