@<TRIPOS>MOLECULE
molecule
   49    52     1     0     0
SMALL
bcc


@<TRIPOS>ATOM
      1 N01          0.0000     0.0000     0.0000 nc         1 51B      -0.709100
      2 C02          1.3040     0.0000     0.0000 cd         1 51B       0.666200
      3 N03          2.0140     0.0000     1.1460 na         1 51B      -0.687000
      4 C04          1.3710    -0.0000     2.3610 cd         1 51B       0.211800
      5 C05         -0.0120     0.0000     2.3810 cc         1 51B      -0.297200
      6 C06         -0.6990     0.0000     1.1520 c          1 51B       0.701700
      7 O07         -1.9220     0.0000     1.1290 o          1 51B      -0.563100
      8 C08          2.0370    -0.0010    -1.3160 c3         1 51B      -0.105000
      9 C09          1.1430     0.6080    -2.3990 c3         1 51B       0.179800
     10 N10          1.8500     0.5890    -3.6870 n3         1 51B      -0.736600
     11 C11          2.1580    -0.7850    -4.1020 c3         1 51B       0.156800
     12 C12          3.0810    -1.4360    -3.0700 c3         1 51B      -0.076400
     13 C13          2.3900    -1.4400    -1.7040 c3         1 51B      -0.078400
     14 C14          2.1380    -0.0010     3.6120 cd         1 51B      -0.052900
     15 S15          3.8910    -0.0010     3.7340 ss         1 51B      -0.103800
     16 C16          3.8210    -0.0020     5.4390 cd         1 51B      -0.084100
     17 C17          2.5540    -0.0020     5.8650 cc         1 51B      -0.160000
     18 C18          1.6030     0.0040     4.8690 cc         1 51B      -0.104000
     19 C19          1.0770     1.2910    -4.7210 c3         1 51B       0.229100
     20 C20          1.9300     1.4660    -5.9510 ca         1 51B      -0.403900
     21 C21          2.7240     2.5900    -6.1090 ca         1 51B       0.509700
     22 N22          3.4600     2.7130    -7.2010 nb         1 51B      -0.798500
     23 C23          3.4420     1.7750    -8.1380 ca         1 51B       0.939900
     24 N24          2.6940     0.6890    -8.0180 nb         1 51B      -0.798500
     25 C25          1.9390     0.5020    -6.9480 ca         1 51B       0.509700
     26 N26          4.2250     1.9360    -9.2680 nu         1 51B      -0.900900
     27 C27          4.2190     0.9110   -10.3150 c3         1 51B       0.238100
     28 H1          -0.5530    -0.0000     3.3200 ha         1 51B       0.167000
     29 H3           2.9460     0.5820    -1.2300 hc         1 51B       0.071700
     30 H4           0.9050     1.6310    -2.1350 h1         1 51B       0.059200
     31 H5           0.2310     0.0290    -2.4800 h1         1 51B       0.059200
     32 H7           2.6520    -0.7670    -5.0660 h1         1 51B       0.040200
     33 H8           1.2390    -1.3540    -4.1720 h1         1 51B       0.040200
     34 H9           3.2930    -2.4560    -3.3690 hc         1 51B       0.052200
     35 H10          4.0040    -0.8730    -3.0060 hc         1 51B       0.052200
     36 H11          3.0600    -1.8590    -0.9620 hc         1 51B       0.050700
     37 H12          1.4850    -2.0310    -1.7580 hc         1 51B       0.050700
     38 H13          4.6870    -0.0050     6.0890 h4         1 51B       0.178000
     39 H14          2.2940    -0.0010     6.9160 ha         1 51B       0.157000
     40 H15          0.5370     0.0060     5.0630 ha         1 51B       0.164000
     41 H16          0.1970     0.7110    -4.9710 h1         1 51B       0.043200
     42 H17          0.7760     2.2630    -4.3500 h1         1 51B       0.043200
     43 H18          2.7430     3.3600    -5.3470 h4         1 51B       0.029600
     44 H19          1.3290    -0.3880    -6.8560 h4         1 51B       0.029600
     45 H20          4.8060     2.7460    -9.3640 hn         1 51B       0.457800
     46 H21          4.8860     1.2080   -11.1150 h1         1 51B       0.040700
     47 H22          3.2140     0.7990   -10.7040 h1         1 51B       0.040700
     48 H23          4.5520    -0.0320    -9.8990 h1         1 51B       0.040700
     49 H24          3.0140    -0.0000     1.1120 hn         1 51B       0.450800
@<TRIPOS>BOND
     1    12    11 1   
     2    12    13 1   
     3    11    10 1   
     4    13     8 1   
     5    10    19 1   
     6    10     9 1   
     7     8     9 1   
     8     8     2 1   
     9    19    20 1   
    10     1     2 2   
    11     1     6 1   
    12     2     3 1   
    13     7     6 2   
    14     6     5 1   
    15    20    25 ar  
    16    20    21 ar  
    17    25    24 ar  
    18     3     4 1   
    19    21    22 ar  
    20     5     4 2   
    21     4    14 1   
    22    24    23 ar  
    23    22    23 ar  
    24    23    26 1   
    25    14    15 1   
    26    14    18 2   
    27    15    16 1   
    28    26    27 1   
    29    18    17 1   
    30    16    17 2   
    31     5    28 1   
    32     8    29 1   
    33     9    30 1   
    34     9    31 1   
    35    11    32 1   
    36    11    33 1   
    37    12    34 1   
    38    12    35 1   
    39    13    36 1   
    40    13    37 1   
    41    16    38 1   
    42    17    39 1   
    43    18    40 1   
    44    19    41 1   
    45    19    42 1   
    46    21    43 1   
    47    25    44 1   
    48    26    45 1   
    49    27    46 1   
    50    27    47 1   
    51    27    48 1   
    52     3    49 1   
@<TRIPOS>SUBSTRUCTURE
     1 51B         1 TEMP              0 ****  ****    0 ROOT
