@<TRIPOS>MOLECULE
molecule
   48    48     1     0     0
SMALL
bcc


@<TRIPOS>ATOM
      1 O3           0.0000     0.0000     0.0000 oh         1 51C      -0.611800
      2 C4           8.4380     2.6670     0.2580 c3         1 51C      -0.081400
      3 C5           7.6910     1.5090     0.9210 c3         1 51C      -0.080400
      4 O4           1.8250     1.3220     1.9810 oh         1 51C      -0.588800
      5 C6           6.2890     1.3920     0.3200 c3         1 51C       0.137400
      6 C7           4.2660     0.1160     0.4480 c3         1 51C       0.098100
      7 C8           4.2970    -0.8670    -0.7460 c3         1 51C       0.120400
      8 C9           1.9240    -1.2130    -0.7530 c3         1 51C       0.152100
      9 O5           3.9310    -0.0600     2.8080 oh         1 51C      -0.566800
     10 C10          0.8670    -1.6640    -1.7630 c3         1 51C       0.155400
     11 C11          1.4290     0.0000     0.0000 c3         1 51C       0.100100
     12 C12          1.9320     0.0000     1.4500 c3         1 51C       0.104100
     13 C13          3.4000    -0.4610     1.5430 c3         1 51C       0.143100
     14 O2           1.3130    -2.8520    -2.4190 oh         1 51C      -0.608800
     15 O1           3.1240    -0.8330    -1.4400 os         1 51C      -0.407600
     16 O            5.5920     0.3100     0.9400 os         1 51C      -0.401600
     17 C3           9.8390     2.7820     0.8600 c3         1 51C      -0.080400
     18 C2          10.5860     3.9420     0.1950 c3         1 51C      -0.082400
     19 C1          11.9880     4.0570     0.7980 c3         1 51C      -0.084400
     20 C           12.7340     5.2160     0.1320 c3         1 51C      -0.092100
     21 H25         -0.3140     0.8840    -0.0950 ho         1 51C       0.413000
     22 H15          8.5160     2.4830    -0.8070 hc         1 51C       0.041200
     23 H14          7.8950     3.5900     0.4260 hc         1 51C       0.041200
     24 H17          7.6140     1.6920     1.9860 hc         1 51C       0.054200
     25 H16          8.2340     0.5860     0.7530 hc         1 51C       0.054200
     26 H26          1.1820     1.3320     2.6710 ho         1 51C       0.407000
     27 H19          6.3670     1.2090    -0.7450 h1         1 51C       0.024200
     28 H18          5.7470     2.3150     0.4880 h1         1 51C       0.024200
     29 H            3.8520     1.0630     0.1240 h1         1 51C       0.063700
     30 H21          5.1090    -0.5920    -1.4090 h1         1 51C       0.055200
     31 H20          4.4600    -1.8710    -0.3740 h1         1 51C       0.055200
     32 H1           2.1390    -2.0140    -0.0550 h1         1 51C       0.054700
     33 H27          3.9310    -0.7970     3.3960 ho         1 51C       0.396000
     34 H23          0.7120    -0.8830    -2.4960 h1         1 51C       0.042700
     35 H22         -0.0640    -1.8650    -1.2460 h1         1 51C       0.042700
     36 H2           1.7880     0.8930    -0.4970 h1         1 51C       0.069700
     37 H3           1.3160    -0.6720     2.0350 h1         1 51C       0.048700
     38 H4           3.4290    -1.5420     1.4740 h1         1 51C       0.037700
     39 H24          0.6290    -3.1760    -2.9810 ho         1 51C       0.403000
     40 H12         10.3810     1.8600     0.6920 hc         1 51C       0.043200
     41 H13          9.7610     2.9670     1.9250 hc         1 51C       0.043200
     42 H10         10.0440     4.8640     0.3630 hc         1 51C       0.041200
     43 H11         10.6650     3.7570    -0.8700 hc         1 51C       0.041200
     44 H8          12.5300     3.1340     0.6300 hc         1 51C       0.040200
     45 H9          11.9090     4.2410     1.8620 hc         1 51C       0.040200
     46 H7          13.7250     5.3000     0.5600 hc         1 51C       0.032367
     47 H5          12.8150     5.0300    -0.9320 hc         1 51C       0.032367
     48 H6          12.1900     6.1380     0.2980 hc         1 51C       0.032367
@<TRIPOS>BOND
     1    20    19 1   
     2    19    18 1   
     3    18    17 1   
     4    17     2 1   
     5     2     3 1   
     6     3     5 1   
     7     5    16 1   
     8    16     6 1   
     9     6     7 1   
    10     6    13 1   
    11     7    15 1   
    12     8    15 1   
    13     8    10 1   
    14     8    11 1   
    15    13    12 1   
    16    13     9 1   
    17    12    11 1   
    18    12     4 1   
    19    10    14 1   
    20    11     1 1   
    21     1    21 1   
    22     2    22 1   
    23     2    23 1   
    24     3    24 1   
    25     3    25 1   
    26     4    26 1   
    27     5    27 1   
    28     5    28 1   
    29     6    29 1   
    30     7    30 1   
    31     7    31 1   
    32     8    32 1   
    33     9    33 1   
    34    10    34 1   
    35    10    35 1   
    36    11    36 1   
    37    12    37 1   
    38    13    38 1   
    39    14    39 1   
    40    17    40 1   
    41    17    41 1   
    42    18    42 1   
    43    18    43 1   
    44    19    44 1   
    45    19    45 1   
    46    20    46 1   
    47    20    47 1   
    48    20    48 1   
@<TRIPOS>SUBSTRUCTURE
     1 51C         1 TEMP              0 ****  ****    0 ROOT
