@<TRIPOS>MOLECULE
molecule
   28    30     1     0     0
SMALL
bcc


@<TRIPOS>ATOM
      1 C2           0.0000     0.0000     0.0000 ca         1 51D       0.208900
      2 C3           1.3860     0.0000     0.0000 ca         1 51D      -0.034600
      3 C4           2.0810     0.0000     1.1920 ca         1 51D      -0.048000
      4 C5           1.3910     0.0000     2.4070 ca         1 51D      -0.031000
      5 C6          -0.0040    -0.0000     2.4130 ca         1 51D      -0.046000
      6 C7          -0.7010     0.0000     1.2090 cp         1 51D      -0.192500
      7 C8          -2.1830    -0.0000     1.2090 cp         1 51D       0.530800
      8 C9          -2.8910    -0.1090     2.4050 ca         1 51D      -0.366600
      9 C10         -4.2810    -0.1040     2.3500 ca         1 51D       0.602800
     10 C12         -4.1760     0.1030     0.0580 ca         1 51D       0.721900
     11 F1          -0.6750     0.0060    -1.1700 f          1 51D      -0.088900
     12 N11         -4.8800     0.0020     1.1680 nb         1 51D      -0.780000
     13 N13         -2.8600     0.1080     0.0660 nb         1 51D      -0.741000
     14 N14         -5.0380    -0.2100     3.5180 na         1 51D       0.026600
     15 C15         -6.3940    -0.2170     3.5970 cc         1 51D      -0.071300
     16 C16         -6.7280    -0.3350     4.9030 cc         1 51D      -0.346300
     17 C17         -5.5440    -0.4030     5.6470 cc         1 51D       0.355200
     18 N18         -4.5330    -0.3330     4.8200 nd         1 51D      -0.508800
     19 C19          2.1140    -0.0010     3.6430 cg         1 51D       0.234800
     20 N20          2.6840    -0.0210     4.6250 n1         1 51D      -0.341800
     21 Cl           2.2500     0.0000    -1.5060 cl         1 51D      -0.065400
     22 H1           3.1640     0.0000     1.1870 ha         1 51D       0.164000
     23 H2          -0.5410    -0.0000     3.3540 ha         1 51D       0.161000
     24 H3          -2.3590    -0.1940     3.3450 ha         1 51D       0.172000
     25 H4          -4.6810     0.1880    -0.8970 h5         1 51D       0.071100
     26 H5          -7.0810    -0.1420     2.7630 h4         1 51D       0.192000
     27 H6          -7.7340    -0.3720     5.3020 ha         1 51D       0.163000
     28 H7          -5.4730    -0.5000     6.7230 h4         1 51D       0.056100
@<TRIPOS>BOND
     1    17    16 1
     2    17    18 2
     3    16    15 2
     4    18    14 1
     5    15    14 1
     6    14     9 1
     7     9     8 ar
     8     9    12 ar
     9     8     7 ar
    10    12    10 ar
    11    11     1 1
    12     7     6 1
    13     7    13 ar
    14    21     2 1
    15     1     6 ar
    16     1     2 ar
    17    10    13 ar
    18     6     5 ar
    19     2     3 ar
    20     5     4 ar
    21     3     4 ar
    22     4    19 1
    23    19    20 3
    24     3    22 1
    25     5    23 1
    26     8    24 1
    27    10    25 1
    28    15    26 1
    29    16    27 1
    30    17    28 1
@<TRIPOS>SUBSTRUCTURE
     1 51D         1 TEMP              0 ****  ****    0 ROOT
