@<TRIPOS>MOLECULE
51E
   30    32     1     0     0
SMALL
bcc


@<TRIPOS>ATOM
      1 C01          0.0000     0.0000     0.0000 ca         1 51E      -0.071000
      2 C02          1.3820     0.0000     0.0000 ca         1 51E      -0.045600
      3 C03          2.0780     0.0000     1.1940 ca         1 51E      -0.061000
      4 C04          1.3860    -0.0000     2.4080 ca         1 51E       0.033000
      5 C6          -0.0070    -0.0010     2.4120 ca         1 51E      -0.034000
      6 C7          -0.7010    -0.0010     1.2050 cp         1 51E      -0.150500
      7 C8          -2.1850    -0.0030     1.2010 cp         1 51E       0.466800
      8 C9          -2.8900    -0.1130     0.0030 ca         1 51E      -0.303600
      9 C10         -4.2840    -0.1100     0.0560 cp         1 51E       0.368300
     10 N11         -4.8840    -0.0020     1.2410 nb         1 51E      -0.624000
     11 C12         -4.1810     0.1010     2.3490 ca         1 51E       0.634900
     12 N13         -2.8640     0.0970     2.3430 nb         1 51E      -0.623000
     13 C19          2.1080    -0.0020     3.6440 cg         1 51E       0.226800
     14 N20          2.6900    -0.0190     4.6200 n1         1 51E      -0.368800
     15 Cl           2.2470     0.0010    -1.5050 cl         1 51E      -0.005400
     16 C1          -6.5300    -0.4380    -3.4860 ca         1 51E       0.012600
     17 C2          -7.2130    -0.3290    -2.2810 ca         1 51E      -0.123000
     18 C3          -6.4770    -0.2200    -1.1130 ca         1 51E      -0.136300
     19 C4          -5.0850    -0.2260    -1.1870 cp         1 51E       0.282300
     20 N1          -4.4710    -0.3320    -2.3570 nb         1 51E      -0.537000
     21 C5          -5.1440    -0.4350    -3.4840 ca         1 51E       0.339200
     22 H1          -0.5420    -0.0000    -0.9380 ha         1 51E       0.128000
     23 H2           3.1610    -0.0000     1.1900 ha         1 51E       0.125000
     24 H3          -0.5460    -0.0010     3.3520 ha         1 51E       0.137000
     25 H4          -2.3560    -0.1990    -0.9350 ha         1 51E       0.150000
     26 H5          -4.6860     0.1890     3.3040 h5         1 51E       0.003100
     27 H6          -8.2960    -0.3290    -2.2690 ha         1 51E       0.127000
     28 H7          -6.9830    -0.1340    -0.1590 ha         1 51E       0.139000
     29 H8          -4.6010    -0.5200    -4.4170 h4         1 51E      -0.000900
     30 F1          -7.0590    -0.2460    -4.6230 f          1 51E      -0.085900
@<TRIPOS>BOND
     1     1     2 ar  
     2     1     6 ar  
     3     1    22 1   
     4     2     3 ar  
     5     2    15 1   
     6     3     4 ar  
     7     3    23 1   
     8     4     5 ar  
     9     4    13 1   
    10     5     6 ar  
    11     5    24 1   
    12     6     7 1   
    13     7     8 ar  
    14     7    12 ar  
    15     8     9 ar  
    16     8    25 1   
    17     9    10 ar  
    18     9    19 1   
    19    10    11 ar  
    20    11    12 ar  
    21    11    26 1   
    22    13    14 3   
    23    16    17 ar  
    24    16    21 ar  
    25    16    30 1   
    26    17    18 ar  
    27    17    27 1   
    28    18    19 ar  
    29    18    28 1   
    30    19    20 ar  
    31    20    21 ar  
    32    21    29 1   
@<TRIPOS>SUBSTRUCTURE
     1 51E         1 TEMP              0 ****  ****    0 ROOT
