@<TRIPOS>MOLECULE
molecule
   19    19     1     0     0
SMALL
bcc


@<TRIPOS>ATOM
      1 OAB          0.0000     0.0000     0.0000 oh         1 51F      -0.610800
      2 CAE          1.4290     0.0000     0.0000 c3         1 51F       0.120400
      3 CAF          1.9390     0.0000     1.4430 c3         1 51F       0.043300
      4 NAI          3.4040    -0.0000     1.4430 na         1 51F      -0.187900
      5 CAD          4.2170    -1.0980     1.5330 cc         1 51F      -0.279600
      6 CAC          5.4860    -0.6480     1.4950 cd         1 51F       0.314200
      7 NAG          5.4490     0.6880     1.3840 nd         1 51F      -0.695000
      8 CAH          4.2060     1.0830     1.3470 cc         1 51F       0.400800
      9 CAA          3.7410     2.5110     1.2230 c3         1 51F      -0.106400
     10 H1          -0.3140    -0.0850    -0.8850 ho         1 51F       0.412000
     11 H2           1.7900     0.8840    -0.5110 h1         1 51F       0.033700
     12 H3           1.7900    -0.8850    -0.5110 h1         1 51F       0.033700
     13 H4           1.5780    -0.8840     1.9530 h1         1 51F       0.073700
     14 H5           1.5780     0.8850     1.9530 h1         1 51F       0.073700
     15 H6           3.9000    -2.1300     1.6190 h4         1 51F       0.173000
     16 H7           6.3800    -1.2580     1.5470 h4         1 51F       0.040100
     17 H8           3.3310     2.6730     0.2340 hc         1 51F       0.054033
     18 H9           2.9780     2.7090     1.9670 hc         1 51F       0.054033
     19 H10          4.5800     3.1790     1.3800 hc         1 51F       0.054033
@<TRIPOS>BOND
     1     6     5 2   
     2     6     7 1   
     3     5     4 1   
     4     7     8 2   
     5     4     3 1   
     6     4     8 1   
     7     3     2 1   
     8     8     9 1   
     9     1     2 1   
    10     1    10 1   
    11     2    11 1   
    12     2    12 1   
    13     3    13 1   
    14     3    14 1   
    15     5    15 1   
    16     6    16 1   
    17     9    17 1   
    18     9    18 1   
    19     9    19 1   
@<TRIPOS>SUBSTRUCTURE
     1 51F         1 TEMP              0 ****  ****    0 ROOT
