@<TRIPOS>MOLECULE
51J
   33    33     1     0     0
SMALL
bcc


@<TRIPOS>ATOM
      1 O14          0.0000     0.0000     0.0000 o          1 51J      -0.572800
      2 S13          1.4210     0.0000     0.0000 sy         1 51J       1.025200
      3 O15          2.1980     0.0000     1.1890 o          1 51J      -0.572800
      4 N16          1.8890    -1.3330    -0.8640 n7         1 51J      -0.521100
      5 C19          3.3090    -1.5730    -1.1300 c3         1 51J       0.312900
      6 C20          3.4960    -2.9610    -1.5820 c1         1 51J      -0.177100
      7 C21          3.6640    -4.0640    -1.9490 c1         1 51J      -0.131100
      8 C29          3.0780    -5.5110    -2.0260 c3         1 51J       0.124000
      9 C11          1.9190     1.4190    -0.9200 ca         1 51J      -0.154500
     10 C10          1.3840     1.6540    -2.1880 ca         1 51J       0.079400
     11 C9           1.7840     2.7800    -2.9100 ca         1 51J      -0.134000
     12 C17          0.3990     0.7140    -2.7630 c          1 51J       0.939200
     13 O17         -0.2130     1.0090    -3.9270 o          1 51J      -0.811800
     14 O18          0.1410    -0.3230    -2.1870 o          1 51J      -0.811800
     15 C12          2.8340     2.3020    -0.3870 ca         1 51J       0.116000
     16 C7           3.2260     3.4170    -1.1070 ca         1 51J      -0.248500
     17 C8           2.7040     3.6520    -2.3670 ca         1 51J      -0.070000
     18 S1           4.3950     4.5400    -0.4190 sy         1 51J       0.914200
     19 O6           4.1880     5.7850    -1.0710 o          1 51J      -0.514800
     20 O5           4.3230     4.3790     0.9910 o          1 51J      -0.514800
     21 N7           5.9010     4.0190    -0.8720 nz         1 51J      -0.173500
     22 H16          1.1310    -1.6920    -1.4100 hn         1 51J       0.417800
     23 H191         3.9230    -0.9310    -1.7510 h1         1 51J       0.018200
     24 H192         3.9500    -1.9650    -0.3490 h1         1 51J       0.018200
     25 H291         2.1620    -5.8530    -2.4920 hc         1 51J       0.002367
     26 H292         3.4460    -6.1840    -1.2610 hc         1 51J       0.002367
     27 H293         3.3670    -6.0310    -2.9320 hc         1 51J       0.002367
     28 H12          3.4300     2.2890     0.5170 ha         1 51J       0.115000
     29 H9           1.8750     2.4540    -3.9390 ha         1 51J       0.155000
     30 H8           2.5760     4.2330    -3.2720 ha         1 51J       0.187000
     31 H7A          6.2190     4.7680    -0.2900 hn         1 51J       0.325800
     32 H7B          6.1340     4.0820    -1.8440 hn         1 51J       0.325800
     33 H73          5.6090     3.2600    -0.2890 hn         1 51J       0.325800
@<TRIPOS>BOND
     1     1     2 2   
     2     2     3 2   
     3     2     4 1   
     4     2     9 1   
     5     4     5 1   
     6     4    22 1   
     7     5     6 1   
     8     5    23 1   
     9     5    24 1   
    10     6     7 3   
    11     7     8 1   
    12     8    25 1   
    13     8    26 1   
    14     8    27 1   
    15     9    10 ar  
    16     9    15 ar  
    17    10    11 ar  
    18    10    12 1   
    19    11    17 ar  
    20    11    29 1   
    21    12    13 1   
    22    12    14 1   
    23    15    16 ar  
    24    15    28 1   
    25    16    17 ar  
    26    16    18 1   
    27    17    30 1   
    28    18    19 2   
    29    18    20 2   
    30    18    21 1   
    31    21    31 1   
    32    21    32 1   
    33    21    33 1   
@<TRIPOS>SUBSTRUCTURE
     1 51J         1 TEMP              0 ****  ****    0 ROOT
