@<TRIPOS>MOLECULE
molecule
   33    33     1     0     0
SMALL
bcc


@<TRIPOS>ATOM
      1 O14          0.0000     0.0000     0.0000 o          1 51J      -0.619300
      2 S13          1.4210     0.0000     0.0000 sy         1 51J       1.414200
      3 O15          2.1980     0.0000     1.1890 o          1 51J      -0.619300
      4 N16          1.8890    -1.3330    -0.8640 n7         1 51J      -0.833100
      5 C19          3.3090    -1.5730    -1.1300 c3         1 51J       0.276900
      6 C20          3.4960    -2.9610    -1.5820 c1         1 51J      -0.161100
      7 C21          3.6640    -4.0640    -1.9490 c1         1 51J      -0.110100
      8 C29          3.0780    -5.5110    -2.0260 c3         1 51J      -0.036000
      9 C11          1.9190     1.4190    -0.9200 ca         1 51J      -0.293500
     10 C10          1.3840     1.6540    -2.1880 ca         1 51J       0.073400
     11 C9           1.7840     2.7800    -2.9100 ca         1 51J      -0.144000
     12 C17          0.3990     0.7140    -2.7630 c          1 51J       0.858200
     13 O17         -0.2130     1.0090    -3.9270 o          1 51J      -0.767800
     14 O18          0.1410    -0.3230    -2.1870 o          1 51J      -0.767800
     15 C12          2.8340     2.3020    -0.3870 ca         1 51J       0.071000
     16 C7           3.2260     3.4170    -1.1070 ca         1 51J      -0.335500
     17 C8           2.7040     3.6520    -2.3670 ca         1 51J      -0.096000
     18 S1           4.3950     4.5400    -0.4190 sy         1 51J       1.144200
     19 O6           4.1880     5.7850    -1.0710 o          1 51J      -0.530300
     20 O5           4.3230     4.3790     0.9910 o          1 51J      -0.530300
     21 N7           5.9010     4.0190    -0.8720 nz         1 51J      -0.814500
     22 H16          1.1310    -1.6920    -1.4100 hn         1 51J       0.508800
     23 H191         3.9230    -0.9310    -1.7510 h1         1 51J       0.063700
     24 H192         3.9500    -1.9650    -0.3490 h1         1 51J       0.063700
     25 H291         2.1620    -5.8530    -2.4920 hc         1 51J       0.051700
     26 H292         3.4460    -6.1840    -1.2610 hc         1 51J       0.051700
     27 H293         3.3670    -6.0310    -2.9320 hc         1 51J       0.051700
     28 H12          3.4300     2.2890     0.5170 ha         1 51J       0.141000
     29 H9           1.8750     2.4540    -3.9390 ha         1 51J       0.186000
     30 H8           2.5760     4.2330    -3.2720 ha         1 51J       0.216000
     31 H7A          6.2190     4.7680    -0.2900 hn         1 51J       0.495800
     32 H7B          6.1340     4.0820    -1.8440 hn         1 51J       0.495800
     33 H73          5.6090     3.2600    -0.2890 hn         1 51J       0.495800
@<TRIPOS>BOND
     1     1     2 2   
     2     2     3 2   
     3     2     4 1   
     4     2     9 1   
     5     4     5 1   
     6     5     6 1   
     7     6     7 3   
     8     7     8 1   
     9     9    10 ar  
    10     9    15 ar  
    11    10    11 ar  
    12    10    12 1   
    13    11    17 ar  
    14    12    13 1   
    15    12    14 1   
    16    15    16 ar  
    17    16    17 ar  
    18    16    18 1   
    19    18    19 2   
    20    18    20 2   
    21    18    21 1   
    22     4    22 1   
    23     5    23 1   
    24     5    24 1   
    25     8    25 1   
    26     8    26 1   
    27     8    27 1   
    28    15    28 1   
    29    11    29 1   
    30    17    30 1   
    31    21    31 1   
    32    21    32 1   
    33    33    21 1   
@<TRIPOS>SUBSTRUCTURE
     1 51J         1 TEMP              0 ****  ****    0 ROOT
