@<TRIPOS>MOLECULE
51K
   35    37     1     0     0
SMALL
bcc


@<TRIPOS>ATOM
      1 F26         0.4960   -0.3240    0.3520 f         1 51K     -0.232133
      2 C23         1.8210   -0.1130    0.0540 c3        1 51K      0.691200
      3 F24         2.4610   -0.2150    1.2650 f         1 51K     -0.232133
      4 F25         2.1980   -1.2450   -0.6250 f         1 51K     -0.232133
      5 C17         2.0890    1.1900   -0.6930 ca        1 51K     -0.181300
      6 C16         2.1110    1.1920   -2.0880 ca        1 51K     -0.029000
      7 C18         2.2950    2.3660    0.0310 ca        1 51K     -0.028000
      8 C13         2.5280    3.5700   -0.6510 ca        1 51K     -0.111500
      9 C14         2.5490    3.5810   -2.0530 ca        1 51K     -0.028000
     10 C15         2.3410    2.3940   -2.7580 ca        1 51K     -0.181300
     11 C19         2.3500    2.4180   -4.2830 c3        1 51K      0.691200
     12 F22         2.7050    1.2280   -4.8700 f         1 51K     -0.232133
     13 F20         1.1340    2.7220   -4.8450 f         1 51K     -0.232133
     14 F21         3.2120    3.3360   -4.8300 f         1 51K     -0.232133
     15 C10         2.7470    4.8040    0.0980 cc        1 51K      0.558500
     16 N9          3.2320    5.9730   -0.4420 nd        1 51K     -0.506800
     17 N8          3.2680    6.8370    0.5810 na        1 51K     -0.054400
     18 C12         2.8140    6.2060    1.7610 cd        1 51K      0.417400
     19 N11         2.4780    4.9330    1.4860 nc        1 51K     -0.671000
     20 C7          3.7210    8.2110    0.4820 c3        1 51K      0.061300
     21 C6          5.1630    8.3410   -0.0160 c3        1 51K     -0.120700
     22 C5          5.5660    9.7600   -0.0370 cc        1 51K      0.448700
     23 N4          5.0970   10.8730    0.5610 nd        1 51K     -0.352000
     24 N3          5.8500   11.9050    0.2060 nd        1 51K     -0.342000
     25 C2          6.8140   11.4780   -0.6230 cc        1 51K      0.452300
     26 O1          6.6840   10.1000   -0.8200 os        1 51K     -0.388800
     27 H1          1.9560    0.2560   -2.6520 ha        1 51K      0.172000
     28 H2          2.2770    2.3360    1.1350 ha        1 51K      0.176000
     29 H3          2.7310    4.5160   -2.6100 ha        1 51K      0.176000
     30 H4          2.7480    6.7090    2.7320 h5        1 51K      0.080100
     31 H5          3.6260    8.6660    1.5090 h1        1 51K      0.085700
     32 H6          3.0370    8.7680   -0.2230 h1        1 51K      0.085700
     33 H7          5.8710    7.7790    0.6550 hc        1 51K      0.095200
     34 H8          5.2660    7.9150   -1.0520 hc        1 51K      0.095200
     35 H9          7.6310   11.9830   -1.1380 h5        1 51K      0.103100
@<TRIPOS>BOND
     1    1    2 1
     2    2    3 1
     3    2    4 1
     4    2    5 1
     5    5    6 ar
     6    5    7 ar
     7    6   10 ar
     8    6   27 1
     9    7    8 ar
    10    7   28 1
    11    8    9 ar
    12    8   15 1
    13    9   10 ar
    14    9   29 1
    15   10   11 1
    16   11   12 1
    17   11   13 1
    18   11   14 1
    19   15   16 2
    20   15   19 1
    21   16   17 1
    22   17   18 1
    23   17   20 1
    24   18   19 2
    25   18   30 1
    26   20   21 1
    27   20   31 1
    28   20   32 1
    29   21   22 1
    30   21   33 1
    31   21   34 1
    32   22   23 2
    33   22   26 1
    34   23   24 1
    35   24   25 2
    36   25   26 1
    37   25   35 1
@<TRIPOS>SUBSTRUCTURE
     1 51K         1 TEMP              0 ****  ****    0 ROOT
