@<TRIPOS>MOLECULE
molecule
   59    62     1     0     0
SMALL
bcc


@<TRIPOS>ATOM
      1 C1           0.0000     0.0000     0.0000 ca         1 51M      -0.135000
      2 C2           1.3930     0.0000     0.0000 ca         1 51M      -0.182000
      3 C3           2.0990     0.0000     1.1830 ca         1 51M       0.161600
      4 C7          -0.7000    -0.0070     3.6350 ca         1 51M      -0.135000
      5 C8           0.0000    -0.0120     4.8020 ca         1 51M      -0.119000
      6 C9           1.3940    -0.0180     4.8020 ca         1 51M      -0.157000
      7 C10          2.0930    -0.0000     3.6350 ca         1 51M      -0.070000
      8 C12          4.0170     1.1910     0.4710 c3         1 51M       0.167800
      9 C13          4.9210     0.6940    -0.6760 c3         1 51M      -0.172700
     10 C14          5.3150    -0.7350    -0.2160 c3         1 51M      -0.063400
     11 C15          4.0180    -1.2060     0.4870 c3         1 51M       0.155800
     12 C16          6.1430     1.5670    -0.8090 c          1 51M       0.883600
     13 O17          7.1060     1.2430    -1.6850 o          1 51M      -0.847800
     14 C21         -2.5320    -2.7070     1.3510 ca         1 51M      -0.306500
     15 C24         -3.2140    -3.0120     2.5140 ca         1 51M       0.022200
     16 C27         -1.2260    -4.7000     1.5950 ca         1 51M      -0.114300
     17 C31         -0.1250    -5.6060     1.1090 c3         1 51M      -0.040800
     18 C4          -0.7060    -0.0010     1.1830 ca         1 51M       0.103600
     19 C5           1.4060    -0.0010     2.4120 ca         1 51M      -0.020000
     20 C6          -0.0110    -0.0060     2.4110 ca         1 51M      -0.038000
     21 N11          3.4960    -0.0000     1.1650 nh         1 51M      -0.638000
     22 O18          6.3250     2.5210    -0.0070 o          1 51M      -0.847800
     23 N19         -2.1040     0.0050     1.1660 nu         1 51M      -0.762500
     24 S20         -2.9280    -1.2430     0.4550 sy         1 51M       1.426200
     25 O22         -2.3720    -1.4040    -0.8420 o          1 51M      -0.642300
     26 O23         -4.3080    -0.9930     0.6850 o          1 51M      -0.642300
     27 C25         -2.9020    -4.1610     3.2170 ca         1 51M      -0.114300
     28 C26         -1.9090    -5.0050     2.7580 ca         1 51M      -0.067000
     29 C28         -1.5340    -3.5480     0.8950 ca         1 51M       0.022200
     30 C29         -4.4930    -2.2260     2.8840 c3         1 51M      -0.078800
     31 H1          -0.3500     0.5910    -0.8380 ha         1 51M       0.147000
     32 H2           1.5700     0.1630    -1.0560 ha         1 51M       0.157000
     33 H3          -1.7820     0.0330     3.6530 ha         1 51M       0.119000
     34 H4          -0.5260    -0.0330     5.7490 ha         1 51M       0.117000
     35 H5           1.9350    -0.0220     5.7400 ha         1 51M       0.124000
     36 H6           3.1760     0.0100     3.6520 ha         1 51M       0.166000
     37 H7           3.1000     1.6060     0.0700 h1         1 51M       0.059200
     38 H8           4.5410     1.9300     1.0650 h1         1 51M       0.059200
     39 H9           4.3680     0.6550    -1.6060 hc         1 51M       0.040700
     40 H10          5.4140    -1.3880    -1.0740 hc         1 51M       0.055700
     41 H11          6.2410    -0.7030     0.3460 hc         1 51M       0.055700
     42 H12          3.3060    -1.5630    -0.2470 h1         1 51M       0.029200
     43 H13          4.2460    -1.9840     1.2060 h1         1 51M       0.029200
     44 H15         -3.3190    -5.4560     4.8990 hc         1 51M       0.041367
     45 H16         -4.7290    -4.5720     4.3000 hc         1 51M       0.041367
     46 H17         -3.4980    -3.7320     5.2520 hc         1 51M       0.041367
     47 H18          0.7800    -5.0290     0.9620 hc         1 51M       0.041367
     48 H19         -0.4200    -6.0600     0.1700 hc         1 51M       0.041367
     49 H20          0.0550    -6.3810     1.8440 hc         1 51M       0.041367
     50 H21         -1.6600    -3.1570    -1.2280 hc         1 51M       0.063033
     51 H22         -0.2680    -4.1410    -0.7540 hc         1 51M       0.063033
     52 H23         -0.2720    -2.4010    -0.4340 hc         1 51M       0.063033
     53 H24         -2.6070     0.6980     1.6840 hn         1 51M       0.453800
     54 H25         -1.6830    -5.9180     3.2940 ha         1 51M       0.128000
     55 H26         -4.5350    -2.0880     3.9570 hc         1 51M       0.063033
     56 H27         -5.3650    -2.7810     2.5570 hc         1 51M       0.063033
     57 H28         -4.4770    -1.2590     2.3960 hc         1 51M       0.063033
     58 C30         -3.6690    -4.5060     4.5140 c3         1 51M      -0.040800
     59 C32         -0.8850    -3.2920    -0.4830 c3         1 51M      -0.078800
@<TRIPOS>BOND
     1    22    12 1
     2    13    12 1
     3    12     9 1
     4     9    10 1
     5     9     8 1
     6    10    11 1
     7     8    21 1
     8    11    21 1
     9    21     3 1
    10     2     3 ar
    11     2     1 ar
    12    58    27 1
    13     3    19 ar
    14    28    27 ar
    15    28    16 ar
    16    17    16 1
    17    27    15 ar
    18     1    18 ar
    19    16    29 ar
    20    19     7 ar
    21    19    20 ar
    22    15    30 1
    23    15    14 ar
    24     7     6 ar
    25    29    14 ar
    26    29    59 1
    27    18    20 ar
    28    18    23 1
    29    14    24 1
    30    20     4 ar
    31    23    24 1
    32     6     5 ar
    33    24    25 2
    34    24    26 2
    35     4     5 ar
    36     1    31 1
    37     2    32 1
    38     4    33 1
    39     5    34 1
    40     6    35 1
    41     7    36 1
    42     8    37 1
    43     8    38 1
    44     9    39 1
    45    10    40 1
    46    10    41 1
    47    11    42 1
    48    11    43 1
    49    58    44 1
    50    58    45 1
    51    58    46 1
    52    17    47 1
    53    17    48 1
    54    17    49 1
    55    59    50 1
    56    59    51 1
    57    59    52 1
    58    23    53 1
    59    28    54 1
    60    30    55 1
    61    30    56 1
    62    30    57 1
@<TRIPOS>SUBSTRUCTURE
     1 51M         1 TEMP              0 ****  ****    0 ROOT
