@<TRIPOS>MOLECULE
molecule
   30    30     1     0     0
SMALL
bcc


@<TRIPOS>ATOM
      1 C01          0.0000     0.0000     0.0000 c3         1 51N       0.404900
      2 O02          1.4310     0.0000     0.0000 os         1 51N      -0.351600
      3 C03          1.9230     0.0000     1.3500 c3         1 51N       0.146100
      4 C04          0.7810    -0.6180     2.1960 c3         1 51N       0.065100
      5 C05         -0.4690    -0.0440     1.4700 c3         1 51N       0.081100
      6 C06          3.1860    -0.8560     1.4570 c3         1 51N       0.238400
      7 O07         -0.4850     1.1890    -0.6280 os         1 51N      -0.559200
      8 O08         -1.4620     2.7160    -2.5330 o          1 51N      -0.919500
      9 P09         -0.8180     1.2780    -2.2000 p5         1 51N       1.192900
     10 O10          0.5380     1.0890    -3.0470 o          1 51N      -0.919500
     11 O11         -1.7780     0.2120    -2.5620 o          1 51N      -0.919500
     12 O12          0.8410    -0.1680     3.5510 oh         1 51N      -0.591800
     13 O13         -0.7750     1.2680     1.9450 oh         1 51N      -0.540800
     14 O14          4.2580    -0.2100     0.7680 os         1 51N      -0.576200
     15 O15          8.9260     0.8960     1.1990 o          1 51N      -0.966833
     16 O16          6.7180     0.2180    -0.0580 os         1 51N      -0.711800
     17 P17          8.3170     0.3540    -0.1890 p5         1 51N       1.333900
     18 O18          8.6720     1.3880    -1.3700 o          1 51N      -0.966833
     19 O19          8.9000    -0.9700    -0.5010 o          1 51N      -0.966833
     20 P20          5.7410    -0.8310     0.6760 p5         1 51N       1.462800
     21 O21          6.2470    -1.1060     2.0390 o          1 51N      -0.890500
     22 O22          5.6980    -2.2020    -0.1670 o          1 51N      -0.890500
     23 H1          -0.3650    -0.8740    -0.5260 h2         1 51N       0.046700
     24 H2           2.1210     1.0140     1.6750 h1         1 51N       0.073700
     25 H3           0.7980    -1.6990     2.1360 h1         1 51N       0.024700
     26 H4          -1.3160    -0.7100     1.5820 h1         1 51N      -0.009300
     27 H5           3.0030    -1.8260     1.0120 h1         1 51N       0.004200
     28 H6           3.4500    -0.9810     2.5000 h1         1 51N       0.004200
     29 H9           0.6390    -0.8850     4.1290 ho         1 51N       0.351000
     30 H10         -1.6540     1.2810     2.2870 ho         1 51N       0.349000
@<TRIPOS>BOND
     1    21    20 1   
     2    22    20 1   
     3    19    17 1   
     4    18    17 1   
     5    20    16 1   
     6    20    14 1   
     7    16    17 1   
     8    17    15 1   
     9    14     6 1   
    10     6     3 1   
    11     3     4 1   
    12     3     2 1   
    13    12     4 1   
    14     4     5 1   
    15     2     1 1   
    16     5     1 1   
    17     5    13 1   
    18     1     7 1   
    19     7     9 1   
    20    11     9 1   
    21     9     8 1   
    22     9    10 1   
    23     1    23 1   
    24     3    24 1   
    25     4    25 1   
    26     5    26 1   
    27     6    27 1   
    28     6    28 1   
    29    12    29 1   
    30    13    30 1   
@<TRIPOS>SUBSTRUCTURE
     1 51N         1 TEMP              0 ****  ****    0 ROOT
