@<TRIPOS>MOLECULE
51P
   38    40     1     0     0
SMALL
bcc


@<TRIPOS>ATOM
      1 C'1         0.0970    0.1130   -0.0650 ca        1 51P     -0.087800
      2 C'2         1.4640   -0.2170    0.0930 ca        1 51P      0.132100
      3 C'3         2.0070   -0.4260    1.3670 ca        1 51P     -0.206000
      4 C'4         1.1910   -0.3130    2.4910 ca        1 51P     -0.092000
      5 C'5        -0.1570    0.0080    2.3520 ca        1 51P     -0.162000
      6 C'6        -0.6960    0.2190    1.0830 ca        1 51P     -0.083000
      7 N1'        -2.2700    5.9500   -0.0810 nb        1 51P     -0.762000
      8 C10        -0.5440   -0.9110   -2.2420 c3        1 51P     -0.063900
      9 C11        -0.4990    0.3060   -1.3890 ce        1 51P     -0.022400
     10 C13         3.5900   -0.5670   -0.9270 c3        1 51P      0.112700
     11 O13         2.1980   -0.3140   -1.0750 os        1 51P     -0.326900
     12 C2'        -3.5850    5.9040   -0.5490 ca        1 51P      0.914900
     13 N2'        -4.4060    6.9830   -0.2110 nh        1 51P     -0.929500
     14 N3'        -4.1810    4.8710   -1.2610 nb        1 51P     -0.833000
     15 C4'        -3.4280    3.7600   -1.5340 ca        1 51P      0.758200
     16 N4'        -3.9730    2.7370   -2.2940 nh        1 51P     -0.943500
     17 C5'        -2.0780    3.6850   -1.0890 ca        1 51P     -0.433400
     18 C6'        -0.9790    2.7390   -1.1470 cd        1 51P     -0.042200
     19 C7'         0.0730    3.3310   -0.4810 cc        1 51P     -0.025900
     20 C8'        -1.5880    4.8250   -0.3670 ca        1 51P      0.644600
     21 O8'        -0.2580    4.6090    0.0090 os        1 51P     -0.305400
     22 C9'        -0.9940    1.4760   -1.8350 cf        1 51P     -0.122000
     23 H'3         3.0680   -0.6790    1.4920 ha        1 51P      0.138000
     24 H'4         1.6180   -0.4780    3.4910 ha        1 51P      0.134000
     25 H'5        -0.7990    0.0980    3.2400 ha        1 51P      0.137000
     26 H'6        -1.7600    0.4790    0.9760 ha        1 51P      0.140000
     27 H10         0.4980   -1.2800   -2.4200 hc        1 51P      0.049367
     28 H10A       -1.1190   -1.7200   -1.7270 hc        1 51P      0.049367
     29 H10B       -1.0240   -0.7060   -3.2290 hc        1 51P      0.049367
     30 H13         3.9670   -0.5610   -1.9810 h1        1 51P      0.045367
     31 H13A        3.7610   -1.5650   -0.4540 h1        1 51P      0.045367
     32 H13B        4.0790    0.2400   -0.3300 h1        1 51P      0.045367
     33 HN2'       -3.9520    7.8160    0.0860 hn        1 51P      0.430300
     34 HN2A       -5.2440    7.0920   -0.7320 hn        1 51P      0.430300
     35 HN4'       -3.5240    1.8550   -2.2150 hn        1 51P      0.427300
     36 HN4A       -4.9550    2.7310   -2.4420 hn        1 51P      0.427300
     37 H7'         1.0950    3.0380   -0.2550 h4        1 51P      0.199000
     38 H9'        -1.4420    1.5190   -2.8460 ha        1 51P      0.133000
@<TRIPOS>BOND
     1    1    2 ar  
     2    1    6 ar  
     3    1    9 1   
     4    2    3 ar  
     5    2   11 1   
     6    3    4 ar  
     7    3   23 1   
     8    4    5 ar  
     9    4   24 1   
    10    5    6 ar  
    11    5   25 1   
    12    6   26 1   
    13    7   12 ar  
    14    7   20 ar  
    15    8    9 1   
    16    8   27 1   
    17    8   28 1   
    18    8   29 1   
    19    9   22 2   
    20   10   11 1   
    21   10   30 1   
    22   10   31 1   
    23   10   32 1   
    24   12   13 1   
    25   12   14 ar  
    26   13   33 1   
    27   13   34 1   
    28   14   15 ar  
    29   15   16 1   
    30   15   17 ar  
    31   16   35 1   
    32   16   36 1   
    33   17   18 1   
    34   17   20 ar  
    35   18   19 2   
    36   18   22 1   
    37   19   21 1   
    38   19   37 1   
    39   20   21 1   
    40   22   38 1   
@<TRIPOS>SUBSTRUCTURE
     1 51P         1 TEMP              0 ****  ****    0 ROOT
