@<TRIPOS>MOLECULE
51Q
   20    20     1     0     0
SMALL
bcc


@<TRIPOS>ATOM
      1 O2           0.0000     0.0000     0.0000 o          1 51Q      -0.869300
      2 C4           1.3420     0.0000     0.0000 c          1 51Q       0.996600
      3 O3           1.9450     0.0000     1.0470 o          1 51Q      -0.869300
      4 C3           2.0960    -0.0010    -1.3040 c3         1 51Q      -0.016600
      5 C5           2.1340    -1.4220    -1.8710 c3         1 51Q       0.006900
      6 S            3.7900     0.5830    -1.0240 ss         1 51Q      -0.197300
      7 C            4.4590     0.6550    -2.6520 cc         1 51Q       0.300200
      8 C2           5.8010     1.0790    -2.8620 c          1 51Q       0.493200
      9 O1           6.5130     1.3990    -1.9250 o          1 51Q      -0.640500
     10 N2           6.2630     1.1150    -4.1340 ns         1 51Q      -0.001400
     11 C1           5.4250     0.7460    -5.1410 cc         1 51Q       0.394200
     12 O            5.8640     0.7730    -6.4190 oh         1 51Q      -0.569600
     13 N1           4.1940     0.3630    -4.8840 nd         1 51Q      -0.404700
     14 N            3.7260     0.3130    -3.6900 nd         1 51Q      -0.298700
     15 H2           1.6000     0.6550    -2.0090 h1         1 51Q       0.055700
     16 H3           3.1300    -1.8320    -1.7530 hc         1 51Q       0.008033
     17 H4           1.4230    -2.0430    -1.3370 hc         1 51Q       0.008033
     18 H5           1.8750    -1.3990    -2.9220 hc         1 51Q       0.008033
     19 H6           7.2000     1.4060    -4.3290 hn         1 51Q       0.178500
     20 H8           5.4040     1.4460    -6.8940 ho         1 51Q       0.419000
@<TRIPOS>BOND
     1     1     2 1   
     2     2     3 1   
     3     2     4 1   
     4     4     5 1   
     5     4     6 1   
     6     4    15 1   
     7     5    16 1   
     8     5    17 1   
     9     5    18 1   
    10     6     7 1   
    11     7     8 1   
    12     7    14 2   
    13     8     9 2   
    14     8    10 1   
    15    10    11 1   
    16    10    19 1   
    17    11    12 1   
    18    11    13 2   
    19    12    20 1   
    20    13    14 1   
@<TRIPOS>SUBSTRUCTURE
     1 51Q         1 TEMP              0 ****  ****    0 ROOT
