@<TRIPOS>MOLECULE
molecule
   17    17     1     0     0
SMALL
bcc


@<TRIPOS>ATOM
      1 CG           0.0000     0.0000     0.0000 ca         1 51R      -0.092000
      2 CD1          1.3820     0.0000     0.0000 ca         1 51R      -0.130000
      3 CE1          2.0750     0.0000     1.1940 ca         1 51R      -0.117000
      4 CD2         -0.6950     0.0000     1.1960 ca         1 51R      -0.176300
      5 CE2         -0.0080     0.0010     2.3950 ca         1 51R      -0.098000
      6 CZ           1.3810     0.0000     2.3980 ca         1 51R       0.161600
      7 NH2          2.0780    -0.0000     3.6090 nv         1 51R      -0.989200
      8 CM          -2.2020     0.0000     1.1920 c3         1 51R       0.674200
      9 F3          -2.6700     1.1420     1.8500 f          1 51R      -0.224300
     10 F1          -2.6640    -0.0010    -0.1290 f          1 51R      -0.224300
     11 F2          -2.6690    -1.1420     1.8500 f          1 51R      -0.224300
     12 H1          -0.5400    -0.0000    -0.9390 ha         1 51R       0.149000
     13 H2           1.9230    -0.0000    -0.9390 ha         1 51R       0.138000
     14 H3           3.1580    -0.0000     1.1930 ha         1 51R       0.141000
     15 H4          -0.5530     0.0010     3.3320 ha         1 51R       0.149000
     16 H5           2.3240     0.8670     4.0450 hn         1 51R       0.431800
     17 H6           2.3240    -0.8670     4.0450 hn         1 51R       0.431800
@<TRIPOS>BOND
     1    11     8 1   
     2     1     2 ar  
     3     1     4 ar  
     4     2     3 ar  
     5     8    10 1   
     6     8     4 1   
     7     8     9 1   
     8     4     5 ar  
     9     3     6 ar  
    10     5     6 ar  
    11     6     7 1   
    12     1    12 1   
    13     2    13 1   
    14     3    14 1   
    15     5    15 1   
    16     7    16 1   
    17     7    17 1   
@<TRIPOS>SUBSTRUCTURE
     1 51R         1 TEMP              0 ****  ****    0 ROOT
