@<TRIPOS>MOLECULE
molecule
   20    20     1     0     0
SMALL
bcc


@<TRIPOS>ATOM
      1 CG           0.0000     0.0000     0.0000 ca         1 51S      -0.087300
      2 CD1          1.3830     0.0000     0.0000 ca         1 51S      -0.130000
      3 CE1          2.0750     0.0000     1.1950 ca         1 51S      -0.139000
      4 CD2         -0.6950     0.0000     1.1960 ca         1 51S      -0.125000
      5 CE2         -0.0090     0.0010     2.3940 ca         1 51S      -0.092300
      6 CZ           1.3800     0.0000     2.3980 ca         1 51S       0.155600
      7 CM          -0.7670     0.0020     3.6960 c3         1 51S      -0.036800
      8 CN          -0.7520     0.0050    -1.3070 c3         1 51S      -0.046800
      9 NH2          2.0770    -0.0000     3.6080 nv         1 51S      -0.989200
     10 H1           1.9240     0.0000    -0.9390 ha         1 51S       0.128000
     11 H2           3.1580    -0.0000     1.1950 ha         1 51S       0.133000
     12 H3          -1.7780     0.0000     1.1920 ha         1 51S       0.130000
     13 H4          -0.5560     0.9170     4.2370 hc         1 51S       0.041033
     14 H5          -0.4610    -0.8490     4.2930 hc         1 51S       0.041033
     15 H6          -1.8300    -0.0610     3.4960 hc         1 51S       0.041033
     16 H7          -1.3010    -0.9230    -1.4110 hc         1 51S       0.041700
     17 H8          -1.4440     0.8380    -1.3220 hc         1 51S       0.041700
     18 H9          -0.0510     0.1040    -2.1270 hc         1 51S       0.041700
     19 H10          2.3600     0.8660     4.0220 hn         1 51S       0.425800
     20 H11          2.3290    -0.8670     4.0400 hn         1 51S       0.425800
@<TRIPOS>BOND
     1     8     1 1
     2     2     1 ar
     3     2     3 ar
     4     1     4 ar
     5     3     6 ar
     6     4     5 ar
     7     6     5 ar
     8     6     9 1
     9     5     7 1
    10     2    10 1
    11     3    11 1
    12     4    12 1
    13     7    13 1
    14     7    14 1
    15     7    15 1
    16     8    16 1
    17     8    17 1
    18     8    18 1
    19     9    19 1
    20     9    20 1
@<TRIPOS>SUBSTRUCTURE
     1 51S         1 TEMP              0 ****  ****    0 ROOT
