@<TRIPOS>MOLECULE
molecule
   17    17     1     0     0
SMALL
bcc


@<TRIPOS>ATOM
      1 CG           0.0000     0.0000     0.0000 ca         1 51V      -0.145000
      2 CD1          1.3830     0.0000     0.0000 ca         1 51V      -0.115000
      3 CE1          2.0750     0.0000     1.1960 ca         1 51V      -0.110300
      4 CD2         -0.6950     0.0070     1.1960 ca         1 51V      -0.120000
      5 CE2         -0.0090     0.0130     2.3940 ca         1 51V      -0.158000
      6 CZ           1.3790     0.0010     2.3990 ca         1 51V       0.170600
      7 CM           3.5810    -0.0000     1.1940 c3         1 51V      -0.036800
      8 NH2          2.0770     0.0070     3.6090 nv         1 51V      -0.973200
      9 H1          -0.5400    -0.0030    -0.9390 ha         1 51V       0.127000
     10 H2           1.9240    -0.0030    -0.9380 ha         1 51V       0.129000
     11 H3          -1.7780     0.0120     1.1930 ha         1 51V       0.127000
     12 H4          -0.5540     0.0160     3.3310 ha         1 51V       0.131000
     13 H5           3.9430     0.8270     1.7930 hc         1 51V       0.040367
     14 H6           3.9430    -0.9330     1.6120 hc         1 51V       0.040367
     15 H7           3.9420     0.1040     0.1780 hc         1 51V       0.040367
     16 H8           1.9750     0.7770     4.2410 hn         1 51V       0.426800
     17 H9           2.6330    -0.7830     3.8690 hn         1 51V       0.426800
@<TRIPOS>BOND
     1     4     1 ar
     2     4     5 ar
     3     1     2 ar
     4     5     6 ar
     5     2     3 ar
     6     6     3 ar
     7     6     8 1
     8     3     7 1
     9     1     9 1
    10     2    10 1
    11     4    11 1
    12     5    12 1
    13     7    13 1
    14     7    14 1
    15     7    15 1
    16     8    16 1
    17     8    17 1
@<TRIPOS>SUBSTRUCTURE
     1 51V         1 TEMP              0 ****  ****    0 ROOT
