@<TRIPOS>MOLECULE
51W
   52    54     1     0     0
SMALL
bcc


@<TRIPOS>ATOM
      1 N12          0.0000     0.0000     0.0000 nu         1 51W      -0.256300
      2 C13          1.3980     0.0000     0.0000 ca         1 51W      -0.012400
      3 C15          3.4810    -0.0090    -1.1960 ca         1 51W      -0.053400
      4 C20          4.7960     0.6990    -6.9760 c3         1 51W      -0.032400
      5 C21          6.1530     0.4080    -6.2800 c3         1 51W      -0.032400
      6 C22          5.7360     0.0990    -4.8260 c3         1 51W       0.059500
      7 C24          4.1700    -0.0020     0.0100 ca         1 51W      -0.139000
      8 C26          2.0940     0.0000     1.2030 ca         1 51W      -0.120000
      9 N01         -8.4920     0.5000    -0.1420 nz         1 51W       0.087400
     10 C02         -7.0470     0.2950    -0.2960 c3         1 51W      -0.048200
     11 C03         -6.3060     1.0060     0.8380 c3         1 51W      -0.050400
     12 C04         -4.8000     0.7930     0.6770 c3         1 51W       0.187800
     13 C06         -2.7080     1.4210     1.8300 ca         1 51W       0.603200
     14 C07         -2.0220     2.0670     2.8620 ca         1 51W      -0.193700
     15 I08         -3.0610     3.1310     4.3370 i          1 51W      -0.250900
     16 C09         -0.6430     1.9870     2.8860 ca         1 51W       0.556200
     17 N10         -0.0170     1.3050     1.9390 nb         1 51W      -0.709000
     18 C11         -0.6920     0.7030     0.9720 ca         1 51W       0.748900
     19 C14          2.0940    -0.0080    -1.2000 ca         1 51W      -0.129000
     20 N16          4.1860    -0.0140    -2.4040 ns         1 51W      -0.058100
     21 N18          4.4190     0.7160    -4.6100 n          1 51W      -0.184800
     22 C19          4.0120     1.4090    -5.8450 c3         1 51W       0.059500
     23 O23          2.6180     1.2010    -3.4030 o          1 51W      -0.706100
     24 C25          3.4750     0.0000     1.2050 ca         1 51W      -0.065000
     25 N27         -2.0140     0.7500     0.9160 nb         1 51W      -0.775000
     26 H121        -0.5000    -0.5350    -0.6820 hn         1 51W       0.287800
     27 H201         4.9320     1.3580    -7.8250 hc         1 51W       0.026950
     28 H202         4.3060    -0.2230    -7.2650 hc         1 51W       0.026950
     29 H211         6.7950     1.2790    -6.3170 hc         1 51W       0.026950
     30 H212         6.6350    -0.4520    -6.7300 hc         1 51W       0.026950
     31 H222         6.4580     0.5240    -4.1390 h1         1 51W       0.018450
     32 H221         5.6680    -0.9720    -4.6830 h1         1 51W       0.018450
     33 H241         5.2530    -0.0020     0.0150 ha         1 51W       0.108000
     34 H261         1.5520     0.0010     2.1410 ha         1 51W       0.138000
     35 H012        -8.6950     1.4790    -0.1740 hn         1 51W       0.224133
     36 H011        -8.9760     0.0340    -0.8840 hn         1 51W       0.224133
     37 H022        -6.7240     0.6990    -1.2480 hx         1 51W       0.089200
     38 H021        -6.8270    -0.7650    -0.2610 hx         1 51W       0.089200
     39 H031        -6.5260     2.0670     0.8030 hc         1 51W       0.036700
     40 H032        -6.6290     0.6020     1.7900 hc         1 51W       0.036700
     41 H042        -4.4770     1.1980    -0.2740 h1         1 51W       0.032700
     42 H041        -4.5800    -0.2680     0.7110 h1         1 51W       0.032700
     43 H051        -4.6060     1.9790     2.4580 hn         1 51W       0.310800
     44 H091        -0.0770     2.5990     3.5770 h4         1 51W      -0.001900
     45 H141         1.5550    -0.0130    -2.1400 ha         1 51W       0.151000
     46 H161         5.0350    -0.5390    -2.4860 hn         1 51W       0.169500
     47 H191         2.9460     1.3010    -6.0030 h1         1 51W       0.018450
     48 H192         4.2880     2.4560    -5.7970 h1         1 51W       0.018450
     49 H251         4.0140     0.0030     2.1440 ha         1 51W       0.106000
     50 H013        -8.7920     0.1180     0.7330 hn         1 51W       0.224133
     51 N05         -4.0910     1.4730     1.7640 nu         1 51W      -0.527900
     52 C17          3.7020     0.6540    -3.4700 c          1 51W       0.603100
@<TRIPOS>BOND
     1     1     2 1   
     2     1    18 1   
     3     1    26 1   
     4     2     8 ar  
     5     2    19 ar  
     6     3     7 ar  
     7     3    19 ar  
     8     3    20 1   
     9     4     5 1   
    10     4    22 1   
    11     4    27 1   
    12     4    28 1   
    13     5     6 1   
    14     5    29 1   
    15     5    30 1   
    16     6    21 1   
    17     6    31 1   
    18     6    32 1   
    19     7    24 ar  
    20     7    33 1   
    21     8    24 ar  
    22     8    34 1   
    23     9    10 1   
    24     9    35 1   
    25     9    36 1   
    26     9    50 1   
    27    10    11 1   
    28    10    37 1   
    29    10    38 1   
    30    11    12 1   
    31    11    39 1   
    32    11    40 1   
    33    12    41 1   
    34    12    42 1   
    35    12    51 1   
    36    13    14 ar  
    37    13    25 ar  
    38    13    51 1   
    39    14    15 1   
    40    14    16 ar  
    41    16    17 ar  
    42    16    44 1   
    43    17    18 ar  
    44    18    25 ar  
    45    19    45 1   
    46    20    46 1   
    47    20    52 1   
    48    21    22 1   
    49    21    52 1   
    50    22    47 1   
    51    22    48 1   
    52    23    52 2   
    53    24    49 1   
    54    43    51 1   
@<TRIPOS>SUBSTRUCTURE
     1 51W         1 TEMP              0 ****  ****    0 ROOT
