@<TRIPOS>MOLECULE
molecule
   21    22     1     0     0
SMALL
bcc


@<TRIPOS>ATOM
      1 C3           0.0000     0.0000     0.0000 c          1 51X       0.883600
      2 C4           1.5070     0.0000     0.0000 c3         1 51X      -0.007000
      3 C5           2.2580     1.1100     2.0950 c          1 51X       0.726100
      4 C6           2.7290     0.7060     3.4360 ca         1 51X      -0.139600
      5 C7           3.1320     1.3950     4.5690 ca         1 51X      -0.075000
      6 C8           3.5260     0.6930     5.6970 ca         1 51X      -0.132000
      7 C9           3.5200    -0.6890     5.7000 ca         1 51X      -0.132000
      8 C10          3.1200    -1.3930     4.5750 ca         1 51X      -0.075000
      9 C11          2.7230    -0.7030     3.4390 ca         1 51X      -0.139600
     10 C12          2.2490    -1.1080     2.0990 c          1 51X       0.726100
     11 O           -0.6040     0.0000     1.0470 o          1 51X      -0.833800
     12 N1           1.9950    -0.0000     1.3810 n          1 51X      -0.441400
     13 H4           1.8680    -0.8840    -0.5110 h1         1 51X       0.061700
     14 H5           1.8680     0.8850    -0.5110 h1         1 51X       0.061700
     15 H6           3.1390     2.4790     4.5730 ha         1 51X       0.141000
     16 H7           3.8410     1.2310     6.5830 ha         1 51X       0.123500
     17 H8           3.8310    -1.2260     6.5880 ha         1 51X       0.123500
     18 H9           3.1180    -2.4760     4.5830 ha         1 51X       0.141000
     19 OXT         -0.6710     0.0050    -1.1620 o          1 51X      -0.833800
     20 O1           2.1080    -2.2520     1.7130 o          1 51X      -0.588500
     21 O2           2.1250     2.2520     1.7040 o          1 51X      -0.588500
@<TRIPOS>BOND
     1    20    10 2   
     2     8     7 ar  
     3     8     9 ar  
     4     7     6 ar  
     5    10     9 1   
     6    10    12 1   
     7     9     4 ar  
     8     6     5 ar  
     9     1    11 1   
    10     1     2 1   
    11    12     2 1   
    12    12     3 1   
    13     4     5 ar  
    14     4     3 1   
    15     3    21 2   
    16     2    13 1   
    17     2    14 1   
    18     5    15 1   
    19     6    16 1   
    20     7    17 1   
    21     8    18 1   
    22     1    19 1   
@<TRIPOS>SUBSTRUCTURE
     1 51X         1 TEMP              0 ****  ****    0 ROOT
