@<TRIPOS>MOLECULE
51X
   21    22     1     0     0
SMALL
bcc


@<TRIPOS>ATOM
      1 C3           0.0000     0.0000     0.0000 c          1 51X       0.973600
      2 C4           1.5070     0.0000     0.0000 c3         1 51X      -0.076000
      3 C5           2.2580     1.1100     2.0950 c          1 51X       0.651600
      4 C6           2.7290     0.7060     3.4360 ca         1 51X      -0.152100
      5 C7           3.1320     1.3950     4.5690 ca         1 51X      -0.037000
      6 C8           3.5260     0.6930     5.6970 ca         1 51X      -0.110000
      7 C9           3.5200    -0.6890     5.7000 ca         1 51X      -0.110000
      8 C10          3.1200    -1.3930     4.5750 ca         1 51X      -0.037000
      9 C11          2.7230    -0.7030     3.4390 ca         1 51X      -0.152100
     10 C12          2.2490    -1.1080     2.0990 c          1 51X       0.651600
     11 O           -0.6040     0.0000     1.0470 o          1 51X      -0.885800
     12 N1           1.9950    -0.0000     1.3810 n          1 51X      -0.055400
     13 H4           1.8680    -0.8840    -0.5110 h1         1 51X       0.035700
     14 H5           1.8680     0.8850    -0.5110 h1         1 51X       0.035700
     15 H6           3.1390     2.4790     4.5730 ha         1 51X       0.110000
     16 H7           3.8410     1.2310     6.5830 ha         1 51X       0.095000
     17 H8           3.8310    -1.2260     6.5880 ha         1 51X       0.095000
     18 H9           3.1180    -2.4760     4.5830 ha         1 51X       0.110000
     19 OXT         -0.6710     0.0050    -1.1620 o          1 51X      -0.885800
     20 O1           2.1080    -2.2520     1.7130 o          1 51X      -0.629000
     21 O2           2.1250     2.2520     1.7040 o          1 51X      -0.629000
@<TRIPOS>BOND
     1     1     2 1   
     2     1    11 1   
     3     1    19 1   
     4     2    12 1   
     5     2    13 1   
     6     2    14 1   
     7     3     4 1   
     8     3    12 1   
     9     3    21 2   
    10     4     5 ar  
    11     4     9 ar  
    12     5     6 ar  
    13     5    15 1   
    14     6     7 ar  
    15     6    16 1   
    16     7     8 ar  
    17     7    17 1   
    18     8     9 ar  
    19     8    18 1   
    20     9    10 1   
    21    10    12 1   
    22    10    20 2   
@<TRIPOS>SUBSTRUCTURE
     1 51X         1 TEMP              0 ****  ****    0 ROOT
