@<TRIPOS>MOLECULE
molecule
   35    36     1     0     0
SMALL
bcc


@<TRIPOS>ATOM
      1 C7           0.0000     0.0000     0.0000 ca         1 51Y      -0.228000
      2 C6           1.3920     0.0000     0.0000 ca         1 51Y       0.208600
      3 C1          -0.6910     0.0070     1.1910 ca         1 51Y      -0.035000
      4 C4           2.0920     0.0000     1.2020 ca         1 51Y      -0.155300
      5 C3           1.4080     0.0010     2.3990 ca         1 51Y       0.107400
      6 C2           0.0090     0.0070     2.4020 ca         1 51Y      -0.060000
      7 N8           2.0850    -0.0020    -1.2070 nu         1 51Y      -0.808600
      8 C9           1.3510    -0.0030    -2.4740 c3         1 51Y       0.239500
      9 C10          2.2330     0.5760    -3.5960 c3         1 51Y       0.112800
     10 O11          1.5960     1.7130    -4.1810 oh         1 51Y      -0.562800
     11 C12          3.6000     0.9700    -3.0350 c3         1 51Y      -0.133100
     12 C13          2.3950    -0.5400    -4.6490 c3         1 51Y      -0.094400
     13 C14          1.1630    -1.4530    -4.4270 c3         1 51Y      -0.063400
     14 C15          1.0080    -1.4490    -2.8860 c3         1 51Y      -0.108400
     15 Cl1          2.2810     0.0020     3.8990 cl         1 51Y      -0.085400
     16 C17         -0.7070     0.0090     3.6420 cg         1 51Y       0.249800
     17 N18         -1.2800    -0.0080     4.6230 n1         1 51Y      -0.368800
     18 H1          -0.3100    -0.4690    -0.9260 ha         1 51Y       0.146000
     19 H2          -1.7100    -0.2970     0.9840 ha         1 51Y       0.149000
     20 H3           3.6680     0.8300     0.5060 hc         1 51Y       0.047700
     21 H4           4.1070    -0.6040     0.4550 hc         1 51Y       0.047700
     22 H5           4.0870     0.2800     2.1220 hc         1 51Y       0.047700
     23 H6           3.0830    -0.0620    -1.1490 hn         1 51Y       0.447800
     24 H7           0.4420     0.5790    -2.3820 h1         1 51Y       0.091700
     25 H8           2.3640     1.9600    -4.6670 ho         1 51Y       0.396000
     26 H9           4.2600     0.1120    -3.0640 hc         1 51Y       0.049700
     27 H10          3.7210     1.7130    -2.2550 hc         1 51Y       0.049700
     28 H11          3.8010     1.6260    -3.8740 hc         1 51Y       0.049700
     29 H12          2.4570    -0.1400    -5.6530 hc         1 51Y       0.054200
     30 H13          3.3190    -1.0330    -4.3730 hc         1 51Y       0.054200
     31 H14          1.2900    -2.4530    -4.8230 hc         1 51Y       0.049700
     32 H15          0.2740    -1.1760    -4.9800 hc         1 51Y       0.049700
     33 H16          0.0120    -1.7620    -2.5960 hc         1 51Y       0.054200
     34 H17          1.6580    -2.0150    -2.2300 hc         1 51Y       0.054200
     35 C5           3.5980    -0.0010     1.1970 c3         1 51Y      -0.054800
@<TRIPOS>BOND
     1    11     9 1   
     2    15     5 1   
     3    35     4 1   
     4     9    12 1   
     5     9    10 1   
     6     9     8 1   
     7    12    13 1   
     8     4     5 ar  
     9     4     2 ar  
    10     5     6 ar  
    11    17    16 3   
    12     7     2 1   
    13     7     8 1   
    14    16     6 1   
    15     6     3 ar  
    16     2     1 ar  
    17     3     1 ar  
    18     8    14 1   
    19    13    14 1   
    20     1    18 1   
    21     3    19 1   
    22    35    20 1   
    23    35    21 1   
    24    35    22 1   
    25     7    23 1   
    26     8    24 1   
    27    10    25 1   
    28    11    26 1   
    29    11    27 1   
    30    11    28 1   
    31    12    29 1   
    32    12    30 1   
    33    13    31 1   
    34    13    32 1   
    35    14    33 1   
    36    14    34 1   
@<TRIPOS>SUBSTRUCTURE
     1 51Y         1 TEMP              0 ****  ****    0 ROOT
