@<TRIPOS>MOLECULE
51Y
   35    36     1     0     0
SMALL
bcc


@<TRIPOS>ATOM
      1 C7           0.0000     0.0000     0.0000 ca         1 51Y      -0.219000
      2 C6           1.3920     0.0000     0.0000 ca         1 51Y       0.069600
      3 C1          -0.6910     0.0070     1.1910 ca         1 51Y      -0.005000
      4 C4           2.0920     0.0000     1.2020 ca         1 51Y      -0.161300
      5 C3           1.4080     0.0010     2.3990 ca         1 51Y       0.034400
      6 C2           0.0090     0.0070     2.4020 ca         1 51Y      -0.020000
      7 N8           2.0850    -0.0020    -1.2070 nu         1 51Y      -0.419600
      8 C9           1.3510    -0.0030    -2.4740 c3         1 51Y       0.123500
      9 C10          2.2330     0.5760    -3.5960 c3         1 51Y       0.139800
     10 O11          1.5960     1.7130    -4.1810 oh         1 51Y      -0.560800
     11 C12          3.6000     0.9700    -3.0350 c3         1 51Y      -0.059100
     12 C13          2.3950    -0.5400    -4.6490 c3         1 51Y      -0.043400
     13 C14          1.1630    -1.4530    -4.4270 c3         1 51Y       0.007600
     14 C15          1.0080    -1.4490    -2.8860 c3         1 51Y      -0.048400
     15 Cl1          2.2810     0.0020     3.8990 cl         1 51Y      -0.000400
     16 C17         -0.7070     0.0090     3.6420 cg         1 51Y       0.242800
     17 N18         -1.2800    -0.0080     4.6230 n1         1 51Y      -0.390800
     18 H1          -0.3100    -0.4690    -0.9260 ha         1 51Y       0.130000
     19 H2          -1.7100    -0.2970     0.9840 ha         1 51Y       0.114000
     20 H3           3.6680     0.8300     0.5060 hc         1 51Y       0.014033
     21 H4           4.1070    -0.6040     0.4550 hc         1 51Y       0.014033
     22 H5           4.0870     0.2800     2.1220 hc         1 51Y       0.014033
     23 H6           3.0830    -0.0620    -1.1490 hn         1 51Y       0.315800
     24 H7           0.4420     0.5790    -2.3820 h1         1 51Y       0.068700
     25 H8           2.3640     1.9600    -4.6670 ho         1 51Y       0.394000
     26 H9           4.2600     0.1120    -3.0640 hc         1 51Y       0.023033
     27 H10          3.7210     1.7130    -2.2550 hc         1 51Y       0.023033
     28 H11          3.8010     1.6260    -3.8740 hc         1 51Y       0.023033
     29 H12          2.4570    -0.1400    -5.6530 hc         1 51Y       0.025700
     30 H13          3.3190    -1.0330    -4.3730 hc         1 51Y       0.025700
     31 H14          1.2900    -2.4530    -4.8230 hc         1 51Y       0.015200
     32 H15          0.2740    -1.1760    -4.9800 hc         1 51Y       0.015200
     33 H16          0.0120    -1.7620    -2.5960 hc         1 51Y       0.022200
     34 H17          1.6580    -2.0150    -2.2300 hc         1 51Y       0.022200
     35 C5           3.5980    -0.0010     1.1970 c3         1 51Y       0.047200
@<TRIPOS>BOND
     1     1     2 ar  
     2     1     3 ar  
     3     1    18 1   
     4     2     4 ar  
     5     2     7 1   
     6     3     6 ar  
     7     3    19 1   
     8     4     5 ar  
     9     4    35 1   
    10     5     6 ar  
    11     5    15 1   
    12     6    16 1   
    13     7     8 1   
    14     7    23 1   
    15     8     9 1   
    16     8    14 1   
    17     8    24 1   
    18     9    10 1   
    19     9    11 1   
    20     9    12 1   
    21    10    25 1   
    22    11    26 1   
    23    11    27 1   
    24    11    28 1   
    25    12    13 1   
    26    12    29 1   
    27    12    30 1   
    28    13    14 1   
    29    13    31 1   
    30    13    32 1   
    31    14    33 1   
    32    14    34 1   
    33    16    17 3   
    34    20    35 1   
    35    21    35 1   
    36    22    35 1   
@<TRIPOS>SUBSTRUCTURE
     1 51Y         1 TEMP              0 ****  ****    0 ROOT
