@<TRIPOS>MOLECULE
520
   42    44     1     0     0
SMALL
bcc


@<TRIPOS>ATOM
      1 C3           0.0000     0.0000     0.0000 ca         1 520      -0.017500
      2 C2           1.3710     0.0000     0.0000 ca         1 520      -0.182000
      3 C1           2.0700     0.0000     1.2050 ca         1 520       0.078600
      4 N1           3.4590     0.0010     1.2020 nv         1 520      -0.454200
      5 C6           1.3780    -0.0010     2.4140 ca         1 520      -0.182000
      6 C5           0.0070    -0.0010     2.4220 ca         1 520      -0.017500
      7 C4          -0.6980    -0.0010     1.2140 ca         1 520      -0.240600
      8 C7          -2.1720     0.0040     1.2180 c          1 520       0.646300
      9 O1          -2.7800     0.5970     0.3470 o          1 520      -0.545100
     10 C16         -2.9090    -0.7090     2.2790 ca         1 520      -0.125600
     11 C17         -4.2970    -0.5750     2.3770 ca         1 520      -0.063000
     12 C18         -4.9840    -1.2410     3.3660 ca         1 520      -0.083500
     13 C15         -2.2220    -1.5230     3.1830 ca         1 520      -0.063000
     14 C14         -2.9110    -2.1880     4.1710 ca         1 520      -0.083500
     15 C19         -4.2950    -2.0490     4.2710 cp         1 520      -0.088000
     16 C10         -5.0370    -2.7650     5.3370 cp         1 520       0.103000
     17 C9          -4.3520    -3.5750     6.2440 ca         1 520      -0.123500
     18 C8          -5.0460    -4.2380     7.2330 ca         1 520       0.021000
     19 C13         -6.4200    -4.1040     7.3270 ca         1 520      -0.245500
     20 O3          -8.6380    -5.0890     8.1320 o          1 520      -0.497800
     21 O2          -6.4930    -6.0640     8.9680 o          1 520      -0.497800
     22 C12         -7.1060    -3.3030     6.4300 ca         1 520       0.021000
     23 C11         -6.4200    -2.6290     5.4400 ca         1 520      -0.123500
     24 S2          -7.3010    -4.9560     8.5930 sy         1 520       0.932200
     25 N2          -7.3580    -3.9530     9.9100 nz         1 520      -0.132500
     26 H1          -0.5430    -0.0000    -0.9380 ha         1 520       0.112500
     27 H2           1.9110     0.0010    -0.9390 ha         1 520       0.115000
     28 H3           3.9580    -0.5190     0.5070 hn         1 520       0.273300
     29 H4           3.9610     0.5210     1.8940 hn         1 520       0.273300
     30 H5           1.9240    -0.0000     3.3500 ha         1 520       0.115000
     31 H6          -0.5300    -0.0010     3.3630 ha         1 520       0.112500
     32 H7          -4.8360     0.0250     1.6530 ha         1 520       0.139500
     33 H8          -6.0610    -1.1470     3.4350 ha         1 520       0.110500
     34 H9          -1.1560    -1.6810     3.0670 ha         1 520       0.139500
     35 H10         -2.3790    -2.8260     4.8670 ha         1 520       0.110500
     36 H11         -3.2760    -3.6810     6.1710 ha         1 520       0.139500
     37 H12         -4.5160    -4.8670     7.9380 ha         1 520       0.123500
     38 H13         -8.1810    -3.2000     6.5100 ha         1 520       0.123500
     39 H14         -6.9570    -2.0030     4.7380 ha         1 520       0.139500
     40 H15         -7.8280    -3.1040     9.6620 hn         1 520       0.312467
     41 H16         -6.4270    -3.7430    10.2110 hn         1 520       0.312467
     42 H23         -7.8550    -4.4040    10.6520 hn         1 520       0.312467
@<TRIPOS>BOND
     1     1     2 ar  
     2     1     7 ar  
     3     1    26 1   
     4     2     3 ar  
     5     2    27 1   
     6     3     4 1   
     7     3     5 ar  
     8     4    28 1   
     9     4    29 1   
    10     5     6 ar  
    11     5    30 1   
    12     6     7 ar  
    13     6    31 1   
    14     7     8 1   
    15     8     9 2   
    16     8    10 1   
    17    10    11 ar  
    18    10    13 ar  
    19    11    12 ar  
    20    11    32 1   
    21    12    15 ar  
    22    12    33 1   
    23    13    14 ar  
    24    13    34 1   
    25    14    15 ar  
    26    14    35 1   
    27    15    16 1   
    28    16    17 ar  
    29    16    23 ar  
    30    17    18 ar  
    31    17    36 1   
    32    18    19 ar  
    33    18    37 1   
    34    19    22 ar  
    35    19    24 1   
    36    20    24 2   
    37    21    24 2   
    38    22    23 ar  
    39    22    38 1   
    40    23    39 1   
    41    24    25 1   
    42    25    40 1   
    43    25    41 1   
    44    25    42 1   
@<TRIPOS>SUBSTRUCTURE
     1 520         1 TEMP              0 ****  ****    0 ROOT
