@<TRIPOS>MOLECULE
molecule
   42    44     1     0     0
SMALL
bcc


@<TRIPOS>ATOM
      1 C3           0.0000     0.0000     0.0000 ca         1 520      -0.050500
      2 C2           1.3710     0.0000     0.0000 ca         1 520      -0.203000
      3 C1           2.0700     0.0000     1.2050 ca         1 520       0.227600
      4 N1           3.4590     0.0010     1.2020 nv         1 520      -0.929200
      5 C6           1.3780    -0.0010     2.4140 ca         1 520      -0.203000
      6 C5           0.0070    -0.0010     2.4220 ca         1 520      -0.050500
      7 C4          -0.6980    -0.0010     1.2140 ca         1 520      -0.226600
      8 C7          -2.1720     0.0040     1.2180 c          1 520       0.588300
      9 O1          -2.7800     0.5970     0.3470 o          1 520      -0.511100
     10 C16         -2.9090    -0.7090     2.2790 ca         1 520      -0.122600
     11 C17         -4.2970    -0.5750     2.3770 ca         1 520      -0.087000
     12 C18         -4.9840    -1.2410     3.3660 ca         1 520      -0.108500
     13 C15         -2.2220    -1.5230     3.1830 ca         1 520      -0.087000
     14 C14         -2.9110    -2.1880     4.1710 ca         1 520      -0.108500
     15 C19         -4.2950    -2.0490     4.2710 cp         1 520      -0.079000
     16 C10         -5.0370    -2.7650     5.3370 cp         1 520       0.090000
     17 C9          -4.3520    -3.5750     6.2440 ca         1 520      -0.136500
     18 C8          -5.0460    -4.2380     7.2330 ca         1 520      -0.021000
     19 C13         -6.4200    -4.1040     7.3270 ca         1 520      -0.356500
     20 O3          -8.6380    -5.0890     8.1320 o          1 520      -0.521800
     21 O2          -6.4930    -6.0640     8.9680 o          1 520      -0.521800
     22 C12         -7.1060    -3.3030     6.4300 ca         1 520      -0.021000
     23 C11         -6.4200    -2.6290     5.4400 ca         1 520      -0.136500
     24 S2          -7.3010    -4.9560     8.5930 sy         1 520       1.223200
     25 N2          -7.3580    -3.9530     9.9100 nz         1 520      -0.805500
     26 H1          -0.5430    -0.0000    -0.9380 ha         1 520       0.141000
     27 H2           1.9110     0.0010    -0.9390 ha         1 520       0.140000
     28 H3           3.9580    -0.5190     0.5070 hn         1 520       0.437300
     29 H4           3.9610     0.5210     1.8940 hn         1 520       0.437300
     30 H5           1.9240    -0.0000     3.3500 ha         1 520       0.140000
     31 H6          -0.5300    -0.0010     3.3630 ha         1 520       0.141000
     32 H7          -4.8360     0.0250     1.6530 ha         1 520       0.167500
     33 H8          -6.0610    -1.1470     3.4350 ha         1 520       0.136000
     34 H9          -1.1560    -1.6810     3.0670 ha         1 520       0.167500
     35 H10         -2.3790    -2.8260     4.8670 ha         1 520       0.136000
     36 H11         -3.2760    -3.6810     6.1710 ha         1 520       0.167000
     37 H12         -4.5160    -4.8670     7.9380 ha         1 520       0.154500
     38 H13         -8.1810    -3.2000     6.5100 ha         1 520       0.154500
     39 H14         -6.9570    -2.0030     4.7380 ha         1 520       0.167000
     40 H15         -7.8280    -3.1040     9.6620 hn         1 520       0.491133
     41 H16         -6.4270    -3.7430    10.2110 hn         1 520       0.491133
     42 H23         -7.8550    -4.4040    10.6520 hn         1 520       0.491133
@<TRIPOS>BOND
     1     4     3 1
     2     3     5 ar
     3     3     2 ar
     4     5     6 ar
     5     2     1 ar
     6     6     7 ar
     7     1     7 ar
     8     7     8 1
     9     9     8 2
    10     8    10 1
    11    10    11 ar
    12    10    13 ar
    13    11    12 ar
    14    13    14 ar
    15    12    15 ar
    16    14    15 ar
    17    15    16 1
    18    16    17 ar
    19    16    23 ar
    20    17    18 ar
    21    23    22 ar
    22    18    19 ar
    23    22    19 ar
    24    19    24 1
    25    24    20 2
    26    24    25 1
    27    24    21 2
    28     1    26 1
    29     2    27 1
    30     4    28 1
    31     4    29 1
    32     5    30 1
    33     6    31 1
    34    11    32 1
    35    12    33 1
    36    13    34 1
    37    14    35 1
    38    17    36 1
    39    18    37 1
    40    22    38 1
    41    23    39 1
    42    25    40 1
    43    25    41 1
    44    42    25 1
@<TRIPOS>SUBSTRUCTURE
     1 520         1 TEMP              0 ****  ****    0 ROOT
