@<TRIPOS>MOLECULE
521
   29    31     1     0     0
SMALL
bcc


@<TRIPOS>ATOM
      1 C1           0.0000     0.0000     0.0000 ca         1 521      -0.089000
      2 C2           1.3950     0.0000     0.0000 ca         1 521      -0.102500
      3 C3           2.0910     0.0000     1.2100 ca         1 521      -0.072500
      4 C4           1.3930     0.0010     2.4170 ca         1 521      -0.034000
      5 C5          -0.0010     0.0010     2.4160 ca         1 521      -0.072500
      6 C6          -0.6980     0.0000     1.2070 ca         1 521      -0.102500
      7 C7           2.1130     0.0000     3.6670 cc         1 521       0.061900
      8 N1           3.7870     1.4880     6.5700 nh         1 521      -0.308900
      9 N2           5.6580     2.6760     7.6680 ns         1 521      -0.324300
     10 C9           3.2340     0.6210     5.6100 cd         1 521       0.059600
     11 C8           2.5560     1.0570     4.4360 cd         1 521      -0.084600
     12 C10          3.2840    -0.7530     5.6980 cc         1 521      -0.083100
     13 S1           2.5160    -1.5110     4.3680 ss         1 521      -0.155800
     14 C11          3.8700     1.0780     8.0010 c3         1 521       0.140800
     15 C12          5.0250     1.8360     8.6190 c          1 521       0.677500
     16 O1           5.3680     1.7370     9.7890 o          1 521      -0.596500
     17 S2           4.9840     2.6270     6.1110 s6         1 521       1.017500
     18 O2           5.9160     2.0020     5.1950 o          1 521      -0.520800
     19 O3           4.3730     3.9080     5.8170 o          1 521      -0.520800
     20 Cl1          2.3320     2.7140     4.0440 cl         1 521       0.063600
     21 H1          -0.5410    -0.0000    -0.9380 ha         1 521       0.103000
     22 H2           1.9370    -0.0000    -0.9380 ha         1 521       0.106000
     23 H3           3.1750    -0.0000     1.2110 ha         1 521       0.111500
     24 H5          -0.5440     0.0010     3.3530 ha         1 521       0.111500
     25 H6          -1.7820     0.0000     1.2070 ha         1 521       0.106000
     26 HN2          6.4430     3.2530     7.8970 hn         1 521       0.247500
     27 H10          3.7530    -1.2910     6.5130 h4         1 521       0.155000
     28 H111         2.9480     1.3330     8.5100 h1         1 521       0.052700
     29 H112         4.0520     0.0120     8.0670 h1         1 521       0.052700
@<TRIPOS>BOND
     1     1     2 ar  
     2     1     6 ar  
     3     1    21 1   
     4     2     3 ar  
     5     2    22 1   
     6     3     4 ar  
     7     3    23 1   
     8     4     5 ar  
     9     4     7 1   
    10     5     6 ar  
    11     5    24 1   
    12     6    25 1   
    13     7    11 2   
    14     7    13 1   
    15     8    10 1   
    16     8    14 1   
    17     8    17 1   
    18     9    15 1   
    19     9    17 1   
    20     9    26 1   
    21    10    11 1   
    22    10    12 2   
    23    11    20 1   
    24    12    13 1   
    25    12    27 1   
    26    14    15 1   
    27    14    28 1   
    28    14    29 1   
    29    15    16 2   
    30    17    18 2   
    31    17    19 2   
@<TRIPOS>SUBSTRUCTURE
     1 521         1 TEMP              0 ****  ****    0 ROOT
