@<TRIPOS>MOLECULE
523
   44    46     1     0     0
SMALL
bcc


@<TRIPOS>ATOM
      1 N1          0.2480   -0.9260   -0.0110 n         1 523     -0.376000
      2 C2          1.5770   -0.4150    0.0810 c         1 523      0.800500
      3 N3          1.9840    0.2770    1.2240 n         1 523     -0.512900
      4 C4          0.9640    1.0160    2.0550 c3        1 523      0.651600
      5 C5         -0.3310    0.1840    2.0850 c2        1 523     -0.160400
      6 C5A        -1.2810    0.3230    3.2070 c3        1 523     -0.084900
      7 C6         -0.6440   -0.6030    1.0300 c2        1 523     -0.074400
      8 O2          2.4350   -0.7450   -0.7890 o         1 523     -0.760500
      9 N4          1.5500    1.2230    3.4090 n3        1 523     -0.951800
     10 C1'        -0.2640   -1.1660   -1.3540 c3        1 523      0.298500
     11 C2'        -1.5060   -2.0870   -1.4020 c3        1 523     -0.097400
     12 C3'        -2.6880   -1.1310   -1.5760 c3        1 523      0.071100
     13 C4'        -2.0670    0.2170   -2.0020 c3        1 523      0.085100
     14 O4'        -0.6430    0.0370   -2.0500 os        1 523     -0.431600
     15 O3'        -3.5400   -1.6490   -2.5940 oh        1 523     -0.641800
     16 C5'        -2.4110    1.3690   -1.0430 c3        1 523      0.179400
     17 O5'        -3.7880    1.4660   -0.8860 os        1 523     -0.598200
     18 PA         -4.3700    1.2670    0.6650 p5        1 523      1.607800
     19 O1A        -5.8230    1.5160    0.5640 o         1 523     -0.895000
     20 O2A        -3.8570   -0.0770    1.0470 o         1 523     -0.895000
     21 O3A        -3.5770    2.4150    1.4620 os        1 523     -0.829800
     22 PB         -2.9040    3.5420    2.4700 p5        1 523      1.734800
     23 O1B        -3.4700    4.8660    2.1610 o         1 523     -0.904500
     24 O2B        -2.9590    2.9600    3.8270 o         1 523     -0.904500
     25 O3B        -1.3120    3.5560    2.0210 os        1 523     -0.830800
     26 PG          0.2480    3.7570    1.7000 p5        1 523      1.643800
     27 O1G         0.5000    4.5260    0.4710 o         1 523     -0.890500
     28 O2G         0.7330    2.1880    1.3330 os        1 523     -0.652200
     29 O3G         1.0060    4.0110    2.9490 o         1 523     -0.890500
     30 HN3         2.8200    0.8000    1.0760 hn        1 523      0.288500
     31 H5A1       -1.5640    1.4020    3.3820 hc        1 523      0.066033
     32 H5A2       -0.8490   -0.1020    4.1470 hc        1 523      0.066033
     33 H5A3       -2.2370   -0.2200    2.9820 hc        1 523      0.066033
     34 H6         -1.6590   -1.0480    0.9420 h4        1 523      0.193000
     35 HN41        1.9290    2.1590    3.4390 hn        1 523      0.374300
     36 HN42        0.8130    1.1760    4.0860 hn        1 523      0.374300
     37 H1'         0.5950   -1.5790   -1.9620 h2        1 523      0.079700
     38 H2'1       -1.6240   -2.7120   -0.4870 hc        1 523      0.046200
     39 H2'2       -1.4180   -2.7650   -2.2860 hc        1 523      0.046200
     40 H3'        -3.2720   -0.9910   -0.6100 h1        1 523      0.160700
     41 H4'        -2.3700    0.4790   -3.0510 h1        1 523      0.039700
     42 HO3'       -4.3190   -1.0790   -2.5760 ho        1 523      0.409000
     43 H5'1       -1.9040    1.1990   -0.0520 h1        1 523      0.051700
     44 H5'2       -2.0210    2.3230   -1.4970 h1        1 523      0.051700
@<TRIPOS>BOND
     1    1    2 1   
     2    1    7 1   
     3    1   10 1   
     4    2    3 1   
     5    2    8 2   
     6    3    4 1   
     7    3   30 1   
     8    4    5 1   
     9    4    9 1   
    10    4   28 1   
    11    5    6 1   
    12    5    7 2   
    13    6   31 1   
    14    6   32 1   
    15    6   33 1   
    16    7   34 1   
    17    9   35 1   
    18    9   36 1   
    19   10   11 1   
    20   10   14 1   
    21   10   37 1   
    22   11   12 1   
    23   11   38 1   
    24   11   39 1   
    25   12   13 1   
    26   12   15 1   
    27   12   40 1   
    28   13   14 1   
    29   13   16 1   
    30   13   41 1   
    31   15   42 1   
    32   16   17 1   
    33   16   43 1   
    34   16   44 1   
    35   17   18 1   
    36   18   19 1   
    37   18   20 1   
    38   18   21 1   
    39   21   22 1   
    40   22   23 1   
    41   22   24 1   
    42   22   25 1   
    43   25   26 1   
    44   26   27 1   
    45   26   28 1   
    46   26   29 1   
@<TRIPOS>SUBSTRUCTURE
     1 523         1 TEMP              0 ****  ****    0 ROOT
