@<TRIPOS>MOLECULE
524
   63    66     1     0     0
SMALL
bcc


@<TRIPOS>ATOM
      1 C2           0.0000     0.0000     0.0000 cc         1 524      -0.047000
      2 C4           0.0600     0.0120     2.3890 cd         1 524      -0.099000
      3 C5           1.4120     0.0000     2.3680 cc         1 524      -0.204600
      4 C1           1.4060     0.0000     0.0000 cc         1 524      -0.171300
      5 C3          -0.6650     0.0070     1.1880 cd         1 524      -0.084000
      6 N6           2.0840     0.0000     1.1860 na         1 524       0.685000
      7 N7           3.4470    -0.0110     0.8570 nc         1 524      -0.836100
      8 C8           3.5280    -0.0050    -0.4530 cd         1 524       0.637200
      9 N9           2.3100    -0.0010    -0.9750 nd         1 524      -0.393300
     10 C14          5.5020     0.0060     6.4380 c3         1 524      -0.144700
     11 C15          6.4280     1.2230     6.4760 c3         1 524      -0.158500
     12 C16          7.1520     1.2640     7.7970 c          1 524       0.565100
     13 N17          6.9320     2.2790     8.6550 n          1 524      -0.074800
     14 C18          4.5360     0.0740     7.5940 c          1 524       0.594100
     15 N19          7.4060     1.1280     5.3840 nz         1 524       0.092400
     16 O20          7.9320     0.3820     8.0880 o          1 524      -0.636100
     17 O21          4.1450     1.1490     7.9950 o          1 524      -0.660100
     18 N22          4.1080    -1.0620     8.1810 n          1 524      -0.112800
     19 C23          3.0850    -1.0030     9.2290 c3         1 524       0.070800
     20 C27          4.6650    -2.3530     7.7720 c3         1 524       0.070800
     21 C31          5.9530     3.3600     8.4710 c3         1 524      -0.041000
     22 C32          6.0370     4.2710     9.7140 c3         1 524       0.195600
     23 C33          6.6570     3.3380    10.7870 c3         1 524      -0.059400
     24 C34          7.6290     2.4850     9.9370 c3         1 524       0.049000
     25 F41          4.7620     4.6940    10.1030 f          1 524      -0.203300
     26 C43          2.1800     0.0070     3.6640 c3         1 524       0.024600
     27 C44          3.0500    -1.2490     3.7480 c3         1 524      -0.038900
     28 C45          3.8290    -1.2430     5.0640 c3         1 524      -0.032400
     29 C46          4.7210    -0.0010     5.1210 c3         1 524      -0.056700
     30 C47          3.8520     1.2560     5.0380 c3         1 524      -0.032400
     31 C48          3.0720     1.2490     3.7210 c3         1 524      -0.038900
     32 H191         8.2750     1.5290     5.6780 hn         1 524       0.227800
     33 H192         7.0640     1.6230     4.5850 hn         1 524       0.227800
     34 H15          5.8420     2.1270     6.3570 hx         1 524       0.126700
     35 H341         8.5570     3.0210     9.7780 h1         1 524       0.042200
     36 H342         7.8140     1.5340    10.4210 h1         1 524       0.042200
     37 H331         7.1970     3.9110    11.5310 hc         1 524       0.053200
     38 H332         5.8960     2.7160    11.2430 hc         1 524       0.053200
     39 H32          6.6870     5.1160     9.5230 h1         1 524       0.040700
     40 H311         4.9570     2.9430     8.3870 h1         1 524       0.056200
     41 H312         6.1970     3.9290     7.5820 h1         1 524       0.056200
     42 H14          6.0920    -0.8990     6.5120 hc         1 524       0.080700
     43 H231         3.5380    -0.6770    10.1570 h1         1 524       0.024533
     44 H232         2.3110    -0.3030     8.9390 h1         1 524       0.024533
     45 H233         2.6510    -1.9860     9.3650 h1         1 524       0.024533
     46 H271         5.4840    -2.1910     7.0820 h1         1 524       0.024533
     47 H272         3.8950    -2.9410     7.2880 h1         1 524       0.024533
     48 H273         5.0270    -2.8820     8.6450 h1         1 524       0.024533
     49 H46          5.4120    -0.0160     4.2870 hc         1 524       0.014700
     50 H451         3.1340    -1.2260     5.8940 hc         1 524       0.027950
     51 H452         4.4460    -2.1320     5.1210 hc         1 524       0.027950
     52 H441         2.4170    -2.1280     3.7100 hc         1 524       0.041200
     53 H442         3.7450    -1.2620     2.9180 hc         1 524       0.041200
     54 H43          1.4890     0.0220     4.4980 hc         1 524       0.044700
     55 H8           4.4500    -0.0050    -1.0210 h5         1 524       0.030800
     56 H2          -0.5480    -0.0040    -0.9350 ha         1 524       0.138000
     57 H3          -1.7490     0.0170     1.2060 ha         1 524       0.126000
     58 H4          -0.4640     0.0180     3.3370 ha         1 524       0.127000
     59 H481         3.7680     1.2320     2.8910 hc         1 524       0.041200
     60 H482         2.4550     2.1380     3.6640 hc         1 524       0.041200
     61 H471         3.1570     1.2680     5.8680 hc         1 524       0.027950
     62 H472         4.4850     2.1340     5.0760 hc         1 524       0.027950
     63 H193         7.5190     0.1690     5.1200 hn         1 524       0.227800
@<TRIPOS>BOND
     1     1     4 1   
     2     1     5 2   
     3     1    56 1   
     4     2     3 2   
     5     2     5 1   
     6     2    58 1   
     7     3     6 1   
     8     3    26 1   
     9     4     6 1   
    10     4     9 2   
    11     5    57 1   
    12     6     7 1   
    13     7     8 2   
    14     8     9 1   
    15     8    55 1   
    16    10    11 1   
    17    10    14 1   
    18    10    29 1   
    19    10    42 1   
    20    11    12 1   
    21    11    15 1   
    22    11    34 1   
    23    12    13 1   
    24    12    16 2   
    25    13    21 1   
    26    13    24 1   
    27    14    17 2   
    28    14    18 1   
    29    15    32 1   
    30    15    33 1   
    31    15    63 1   
    32    18    19 1   
    33    18    20 1   
    34    19    43 1   
    35    19    44 1   
    36    19    45 1   
    37    20    46 1   
    38    20    47 1   
    39    20    48 1   
    40    21    22 1   
    41    21    40 1   
    42    21    41 1   
    43    22    23 1   
    44    22    25 1   
    45    22    39 1   
    46    23    24 1   
    47    23    37 1   
    48    23    38 1   
    49    24    35 1   
    50    24    36 1   
    51    26    27 1   
    52    26    31 1   
    53    26    54 1   
    54    27    28 1   
    55    27    52 1   
    56    27    53 1   
    57    28    29 1   
    58    28    50 1   
    59    28    51 1   
    60    29    30 1   
    61    29    49 1   
    62    30    31 1   
    63    30    61 1   
    64    30    62 1   
    65    31    59 1   
    66    31    60 1   
@<TRIPOS>SUBSTRUCTURE
     1 524         1 TEMP              0 ****  ****    0 ROOT
