@<TRIPOS>MOLECULE
molecule
   75    78     1     0     0
SMALL
bcc


@<TRIPOS>ATOM
      1 C1           0.0000     0.0000     0.0000 ca         1 525      -0.190000
      2 C2           1.3850     0.0000     0.0000 ca         1 525       0.186900
      3 C3           2.0770     0.0000     1.1920 ca         1 525      -0.201000
      4 C4           1.4080     0.0010     2.4200 ca         1 525       0.045700
      5 C5           0.0320     0.0580     2.3990 ca         1 525      -0.319500
      6 C6          -0.6690     0.0350     1.2070 ca         1 525      -0.006000
      7 C7           2.3120    -0.1340     3.6260 c3         1 525      -0.048100
      8 C8           1.7720     0.5460     4.8770 c3         1 525      -0.145700
      9 C9           0.9460    -0.4560     5.7160 c3         1 525       0.232800
     10 N10         -0.2000    -0.8680     4.9550 n3         1 525      -0.808500
     11 S11         -0.8650     0.2330     3.9050 sy         1 525       1.429200
     12 C12         -0.7630    -2.2140     5.1000 c3         1 525       0.242800
     13 C13         -1.7350    -2.2350     6.2810 c3         1 525       0.107100
     14 C14         -2.2270    -3.6660     6.5110 c3         1 525       0.124700
     15 O15         -2.8500    -1.3880     5.9960 oh         1 525      -0.579800
     16 C16         -3.0470    -4.1230     5.3020 c3         1 525      -0.048100
     17 N17         -3.0630    -3.7080     7.7130 ns         1 525      -0.567900
     18 C18         -3.1970    -4.8580     8.4020 c          1 525       0.746100
     19 O19         -3.9650    -4.8980     9.5060 os         1 525      -0.431900
     20 O20         -2.6220    -5.8620     8.0260 o          1 525      -0.600000
     21 C21         -3.4280    -5.5710     5.4720 ca         1 525      -0.069300
     22 C22         -4.6100    -5.9040     6.1090 ca         1 525      -0.117500
     23 C23         -4.9580    -7.2330     6.2650 ca         1 525      -0.123000
     24 C24         -4.1270    -8.2270     5.7850 ca         1 525      -0.126000
     25 C25         -2.9470    -7.8940     5.1480 ca         1 525      -0.123000
     26 C26         -2.6000    -6.5650     4.9880 ca         1 525      -0.117500
     27 O27         -0.5530     1.5220     4.4170 o          1 525      -0.624300
     28 O28         -2.1910    -0.2040     3.6430 o          1 525      -0.624300
     29 C29          2.9410     1.0660     5.7160 c3         1 525      -0.051000
     30 C30          3.8780    -0.0930     6.0600 c3         1 525      -0.087100
     31 C31          3.7090     2.1230     4.9210 c3         1 525      -0.087100
     32 C32          2.4050     1.6890     7.0070 c3         1 525      -0.087100
     33 F33          2.0590    -0.0000    -1.1700 f          1 525      -0.134900
     34 C34         -4.0620    -6.1700    10.1980 c3         1 525       0.135100
     35 C35         -5.3020    -6.9590     9.7250 c3         1 525       0.109400
     36 C36         -4.3560    -5.9580    11.7080 c3         1 525      -0.120400
     37 O37         -5.8910    -7.5710    10.8780 os         1 525      -0.416600
     38 C38         -5.1050    -7.2710    12.0490 c3         1 525       0.130400
     39 H1          -0.5500     0.0000    -0.9330 ha         1 525       0.154000
     40 H2           3.1600    -0.0000     1.1780 ha         1 525       0.147000
     41 H3          -1.7520     0.0350     1.2210 ha         1 525       0.162000
     42 H4           3.2740     0.3030     3.3850 hc         1 525       0.067700
     43 H5           2.4480    -1.1870     3.8390 hc         1 525       0.067700
     44 H6           1.1380     1.3750     4.5860 hc         1 525       0.132700
     45 H7           1.5550    -1.3200     5.9500 h1         1 525       0.049200
     46 H8           0.6190     0.0230     6.6310 h1         1 525       0.049200
     47 H9           0.0370    -2.9220     5.2780 h1         1 525       0.068700
     48 H10         -1.2900    -2.4840     4.1940 h1         1 525       0.068700
     49 H11         -1.2300    -1.8800     7.1710 h1         1 525       0.043700
     50 H12         -1.3770    -4.3240     6.6390 h1         1 525       0.083700
     51 H13         -3.0000    -0.8090     6.7250 ho         1 525       0.400000
     52 H14         -3.9440    -3.5200     5.2260 hc         1 525       0.065700
     53 H15         -2.4570    -4.0080     4.4010 hc         1 525       0.065700
     54 H16         -3.5140    -2.8750     8.0380 hn         1 525       0.321500
     55 H17         -5.2610    -5.1250     6.4850 ha         1 525       0.123500
     56 H18         -5.8840    -7.4950     6.7640 ha         1 525       0.125000
     57 H19         -4.4000    -9.2680     5.9090 ha         1 525       0.125000
     58 H20         -2.2960    -8.6730     4.7700 ha         1 525       0.125000
     59 H21         -1.6740    -6.3040     4.4890 ha         1 525       0.123500
     60 H22          4.7920     0.2970     6.4920 hc         1 525       0.038033
     61 H23          4.1120    -0.6480     5.1600 hc         1 525       0.038033
     62 H24          3.3940    -0.7500     6.7730 hc         1 525       0.038033
     63 H25          4.2770     2.7450     5.6020 hc         1 525       0.038033
     64 H26          4.3840     1.6350     4.2290 hc         1 525       0.038033
     65 H27          3.0090     2.7390     4.3690 hc         1 525       0.038033
     66 H28          3.1770     2.2970     7.4630 hc         1 525       0.038033
     67 H29          2.1130     0.9030     7.6930 hc         1 525       0.038033
     68 H30          1.5450     2.3080     6.7800 hc         1 525       0.038033
     69 H31         -3.1620    -6.7580    10.0630 h1         1 525       0.088700
     70 H32         -5.0030    -7.7230     9.0180 h1         1 525       0.061200
     71 H33         -6.0130    -6.2830     9.2660 h1         1 525       0.061200
     72 H34         -3.4360    -5.8780    12.2750 hc         1 525       0.067200
     73 H35         -4.9940    -5.0960    11.8610 hc         1 525       0.067200
     74 H36         -4.3960    -8.0680    12.2380 h1         1 525       0.052200
     75 H37         -5.7510    -7.1220    12.9050 h1         1 525       0.052200
@<TRIPOS>BOND
     1    38    37 1
     2    38    36 1
     3    32    29 1
     4    37    35 1
     5    30    29 1
     6    36    34 1
     7    31    29 1
     8    29     8 1
     9    35    34 1
    10    34    19 1
    11     8     9 1
    12     8     7 1
    13    19    18 1
    14     9    10 1
    15    15    13 1
    16    18    20 2
    17    18    17 1
    18    13    12 1
    19    13    14 1
    20     7     4 1
    21    17    14 1
    22    12    10 1
    23    10    11 1
    24    14    16 1
    25     4     3 ar
    26     4     5 ar
    27     3     2 ar
    28    28    11 2
    29    11     5 1
    30    11    27 2
    31    16    21 1
    32     5     6 ar
    33     2    33 1
    34     2     1 ar
    35    21    22 ar
    36    21    26 ar
    37    22    23 ar
    38     6     1 ar
    39    26    25 ar
    40    23    24 ar
    41    25    24 ar
    42     1    39 1
    43     3    40 1
    44     6    41 1
    45     7    42 1
    46     7    43 1
    47     8    44 1
    48     9    45 1
    49     9    46 1
    50    12    47 1
    51    12    48 1
    52    13    49 1
    53    14    50 1
    54    15    51 1
    55    16    52 1
    56    16    53 1
    57    17    54 1
    58    22    55 1
    59    23    56 1
    60    24    57 1
    61    25    58 1
    62    26    59 1
    63    30    60 1
    64    30    61 1
    65    30    62 1
    66    31    63 1
    67    31    64 1
    68    31    65 1
    69    32    66 1
    70    32    67 1
    71    32    68 1
    72    34    69 1
    73    35    70 1
    74    35    71 1
    75    36    72 1
    76    36    73 1
    77    38    74 1
    78    38    75 1
@<TRIPOS>SUBSTRUCTURE
     1 525         1 TEMP              0 ****  ****    0 ROOT
