@<TRIPOS>MOLECULE
526
   75    78     1     0     0
SMALL
bcc


@<TRIPOS>ATOM
      1 C1           0.0000     0.0000     0.0000 ca         1 526      -0.168000
      2 C2           1.3840     0.0000     0.0000 ca         1 526       0.151900
      3 C3           2.0780     0.0000     1.1910 ca         1 526      -0.185000
      4 C4           1.4080     0.0000     2.4190 ca         1 526       0.042700
      5 C5           0.0330    -0.0540     2.3990 ca         1 526      -0.134500
      6 C6          -0.6700    -0.0220     1.2080 ca         1 526       0.040000
      7 C7           2.3140     0.1360     3.6250 c3         1 526       0.007900
      8 C8           1.7740    -0.5430     4.8770 c3         1 526      -0.167700
      9 C9           0.9480     0.4600     5.7160 c3         1 526       0.227800
     10 N10         -0.1980     0.8740     4.9560 n3         1 526      -0.511500
     11 S11         -0.8640    -0.2280     3.9060 sy         1 526       1.060200
     12 C12         -0.7590     2.2190     5.1010 c3         1 526       0.227800
     13 C13         -0.0010     3.1880     4.1900 c3         1 526       0.144100
     14 C14         -0.5040     4.6130     4.4320 c3         1 526       0.000700
     15 O15         -0.2230     2.8310     2.8250 oh         1 526      -0.579800
     16 C16         -1.9680     4.7170     4.0050 c3         1 526       0.010900
     17 N17          0.3010     5.5540     3.6510 ns         1 526      -0.172900
     18 C18          0.4110     6.8380     4.0470 c          1 526       0.678100
     19 O19          1.1520     7.7030     3.3280 os         1 526      -0.413900
     20 O20         -0.1570     7.2150     5.0520 o          1 526      -0.640000
     21 C21         -2.4990     6.0840     4.3570 ca         1 526      -0.079300
     22 C22         -3.0790     6.3030     5.5920 ca         1 526      -0.091500
     23 C23         -3.5650     7.5560     5.9140 ca         1 526      -0.094000
     24 C24         -3.4710     8.5900     5.0020 ca         1 526      -0.097000
     25 C25         -2.8900     8.3710     3.7660 ca         1 526      -0.094000
     26 C26         -2.4000     7.1190     3.4460 ca         1 526      -0.091500
     27 O27         -2.1890     0.2100     3.6440 o          1 526      -0.581800
     28 O28         -0.5530    -1.5170     4.4190 o          1 526      -0.581800
     29 C29          2.9420    -1.0640     5.7160 c3         1 526      -0.046000
     30 C30          2.4100    -1.6430     7.0290 c3         1 526      -0.003433
     31 C31          3.6810    -2.1560     4.9400 c3         1 526      -0.003433
     32 C32          3.9050     0.0860     6.0200 c3         1 526      -0.003433
     33 F33          2.0580    -0.0010    -1.1710 f          1 526      -0.126900
     34 C34          1.2260     9.0690     3.8140 c3         1 526       0.166100
     35 C35          0.1580     9.9520     3.1340 c3         1 526       0.179400
     36 C36          2.5520     9.7440     3.3670 c3         1 526      -0.071400
     37 O37          0.7630    11.2190     2.8450 os         1 526      -0.408600
     38 C38          2.1230    11.2320     3.3210 c3         1 526       0.217400
     39 H1          -0.5500    -0.0000    -0.9330 ha         1 526       0.127000
     40 H2           3.1610    -0.0000     1.1760 ha         1 526       0.125000
     41 H3          -1.7530    -0.0230     1.2220 ha         1 526       0.132000
     42 H4           3.2750    -0.3020     3.3840 hc         1 526       0.036700
     43 H5           2.4510     1.1890     3.8370 hc         1 526       0.036700
     44 H6           1.1390    -1.3720     4.5870 hc         1 526       0.138700
     45 H7           0.6210    -0.0170     6.6320 h1         1 526       0.020700
     46 H8           1.5590     1.3240     5.9490 h1         1 526       0.020700
     47 H9          -1.8060     2.2050     4.8230 h1         1 526       0.045700
     48 H10         -0.6630     2.5410     6.1310 h1         1 526       0.045700
     49 H11          1.0580     3.1360     4.4090 h1         1 526       0.010700
     50 H12         -0.4170     4.8520     5.4850 h1         1 526       0.066700
     51 H13          0.4310     3.2400     2.2830 ho         1 526       0.390000
     52 H14         -2.5490     3.9610     4.5190 hc         1 526       0.036700
     53 H15         -2.0440     4.5650     2.9350 hc         1 526       0.036700
     54 H16          0.7990     5.2360     2.8420 hn         1 526       0.167500
     55 H17         -3.1530     5.4930     6.3070 ha         1 526       0.099000
     56 H18         -4.0200     7.7280     6.8820 ha         1 526       0.100000
     57 H19         -3.8530     9.5720     5.2540 ha         1 526       0.099000
     58 H20         -2.8140     9.1820     3.0520 ha         1 526       0.100000
     59 H21         -1.9450     6.9470     2.4780 ha         1 526       0.099000
     60 H22          3.1630    -2.2800     7.4740 hc         1 526       0.008811
     61 H23          2.1710    -0.8350     7.7100 hc         1 526       0.008811
     62 H24          1.5170    -2.2230     6.8310 hc         1 526       0.008811
     63 H25          4.2740    -2.7480     5.6260 hc         1 526       0.008811
     64 H26          4.3300    -1.6990     4.2030 hc         1 526       0.008811
     65 H27          2.9610    -2.7940     4.4410 hc         1 526       0.008811
     66 H28          3.4120     0.8110     6.6570 hc         1 526       0.008811
     67 H29          4.2030     0.5620     5.0940 hc         1 526       0.008811
     68 H30          4.7810    -0.3020     6.5250 hc         1 526       0.008811
     69 H31          1.1230     9.1070     4.8910 h1         1 526       0.054700
     70 H32         -0.6820    10.0930     3.8040 h1         1 526       0.020700
     71 H33         -0.1720     9.4860     2.2140 h1         1 526       0.020700
     72 H34          3.3330     9.5880     4.1010 hc         1 526       0.032200
     73 H35          2.8520     9.3970     2.3850 hc         1 526       0.032200
     74 H36          2.1680    11.6650     4.3130 h1         1 526       0.008700
     75 H37          2.7550    11.7830     2.6340 h1         1 526       0.008700
@<TRIPOS>BOND
     1     1     2 ar  
     2     1     6 ar  
     3     1    39 1   
     4     2     3 ar  
     5     2    33 1   
     6     3     4 ar  
     7     3    40 1   
     8     4     5 ar  
     9     4     7 1   
    10     5     6 ar  
    11     5    11 1   
    12     6    41 1   
    13     7     8 1   
    14     7    42 1   
    15     7    43 1   
    16     8     9 1   
    17     8    29 1   
    18     8    44 1   
    19     9    10 1   
    20     9    45 1   
    21     9    46 1   
    22    10    11 1   
    23    10    12 1   
    24    11    27 2   
    25    11    28 2   
    26    12    13 1   
    27    12    47 1   
    28    12    48 1   
    29    13    14 1   
    30    13    15 1   
    31    13    49 1   
    32    14    16 1   
    33    14    17 1   
    34    14    50 1   
    35    15    51 1   
    36    16    21 1   
    37    16    52 1   
    38    16    53 1   
    39    17    18 1   
    40    17    54 1   
    41    18    19 1   
    42    18    20 2   
    43    19    34 1   
    44    21    22 ar  
    45    21    26 ar  
    46    22    23 ar  
    47    22    55 1   
    48    23    24 ar  
    49    23    56 1   
    50    24    25 ar  
    51    24    57 1   
    52    25    26 ar  
    53    25    58 1   
    54    26    59 1   
    55    29    30 1   
    56    29    31 1   
    57    29    32 1   
    58    30    60 1   
    59    30    61 1   
    60    30    62 1   
    61    31    63 1   
    62    31    64 1   
    63    31    65 1   
    64    32    66 1   
    65    32    67 1   
    66    32    68 1   
    67    34    35 1   
    68    34    36 1   
    69    34    69 1   
    70    35    37 1   
    71    35    70 1   
    72    35    71 1   
    73    36    38 1   
    74    36    72 1   
    75    36    73 1   
    76    37    38 1   
    77    38    74 1   
    78    38    75 1   
@<TRIPOS>SUBSTRUCTURE
     1 526         1 TEMP              0 ****  ****    0 ROOT
