@<TRIPOS>MOLECULE
molecule
   75    78     1     0     0
SMALL
bcc


@<TRIPOS>ATOM
      1 C1           0.0000     0.0000     0.0000 ca         1 526      -0.192000
      2 C2           1.3840     0.0000     0.0000 ca         1 526       0.180900
      3 C3           2.0780     0.0000     1.1910 ca         1 526      -0.206000
      4 C4           1.4080     0.0000     2.4190 ca         1 526       0.040700
      5 C5           0.0330    -0.0540     2.3990 ca         1 526      -0.292500
      6 C6          -0.6700    -0.0220     1.2080 ca         1 526       0.002000
      7 C7           2.3140     0.1360     3.6250 c3         1 526      -0.045100
      8 C8           1.7740    -0.5430     4.8770 c3         1 526      -0.145700
      9 C9           0.9480     0.4600     5.7160 c3         1 526       0.232800
     10 N10         -0.1980     0.8740     4.9560 n3         1 526      -0.803500
     11 S11         -0.8640    -0.2280     3.9060 sy         1 526       1.438200
     12 C12         -0.7590     2.2190     5.1010 c3         1 526       0.246800
     13 C13         -0.0010     3.1880     4.1900 c3         1 526       0.103100
     14 C14         -0.5040     4.6130     4.4320 c3         1 526       0.109700
     15 O15         -0.2230     2.8310     2.8250 oh         1 526      -0.596800
     16 C16         -1.9680     4.7170     4.0050 c3         1 526      -0.048100
     17 N17          0.3010     5.5540     3.6510 ns         1 526      -0.572900
     18 C18          0.4110     6.8380     4.0470 c          1 526       0.747100
     19 O19          1.1520     7.7030     3.3280 os         1 526      -0.432900
     20 O20         -0.1570     7.2150     5.0520 o          1 526      -0.593000
     21 C21         -2.4990     6.0840     4.3570 ca         1 526      -0.071300
     22 C22         -3.0790     6.3030     5.5920 ca         1 526      -0.116500
     23 C23         -3.5650     7.5560     5.9140 ca         1 526      -0.122500
     24 C24         -3.4710     8.5900     5.0020 ca         1 526      -0.125000
     25 C25         -2.8900     8.3710     3.7660 ca         1 526      -0.122500
     26 C26         -2.4000     7.1190     3.4460 ca         1 526      -0.116500
     27 O27         -2.1890     0.2100     3.6440 o          1 526      -0.633800
     28 O28         -0.5530    -1.5170     4.4190 o          1 526      -0.633800
     29 C29          2.9420    -1.0640     5.7160 c3         1 526      -0.052000
     30 C30          2.4100    -1.6430     7.0290 c3         1 526      -0.087100
     31 C31          3.6810    -2.1560     4.9400 c3         1 526      -0.087100
     32 C32          3.9050     0.0860     6.0200 c3         1 526      -0.087100
     33 F33          2.0580    -0.0010    -1.1710 f          1 526      -0.136900
     34 C34          1.2260     9.0690     3.8140 c3         1 526       0.135100
     35 C35          0.1580     9.9520     3.1340 c3         1 526       0.108400
     36 C36          2.5520     9.7440     3.3670 c3         1 526      -0.120400
     37 O37          0.7630    11.2190     2.8450 os         1 526      -0.416600
     38 C38          2.1230    11.2320     3.3210 c3         1 526       0.130400
     39 H1          -0.5500    -0.0000    -0.9330 ha         1 526       0.153000
     40 H2           3.1610    -0.0000     1.1760 ha         1 526       0.145000
     41 H3          -1.7530    -0.0230     1.2220 ha         1 526       0.162000
     42 H4           3.2750    -0.3020     3.3840 hc         1 526       0.064200
     43 H5           2.4510     1.1890     3.8370 hc         1 526       0.064200
     44 H6           1.1390    -1.3720     4.5870 hc         1 526       0.133700
     45 H7           0.6210    -0.0170     6.6320 h1         1 526       0.050700
     46 H8           1.5590     1.3240     5.9490 h1         1 526       0.050700
     47 H9          -1.8060     2.2050     4.8230 h1         1 526       0.079700
     48 H10         -0.6630     2.5410     6.1310 h1         1 526       0.079700
     49 H11          1.0580     3.1360     4.4090 h1         1 526       0.042700
     50 H12         -0.4170     4.8520     5.4850 h1         1 526       0.087700
     51 H13          0.4310     3.2400     2.2830 ho         1 526       0.404000
     52 H14         -2.5490     3.9610     4.5190 hc         1 526       0.065200
     53 H15         -2.0440     4.5650     2.9350 hc         1 526       0.065200
     54 H16          0.7990     5.2360     2.8420 hn         1 526       0.315500
     55 H17         -3.1530     5.4930     6.3070 ha         1 526       0.123500
     56 H18         -4.0200     7.7280     6.8820 ha         1 526       0.125500
     57 H19         -3.8530     9.5720     5.2540 ha         1 526       0.126000
     58 H20         -2.8140     9.1820     3.0520 ha         1 526       0.125500
     59 H21         -1.9450     6.9470     2.4780 ha         1 526       0.123500
     60 H22          3.1630    -2.2800     7.4740 hc         1 526       0.038144
     61 H23          2.1710    -0.8350     7.7100 hc         1 526       0.038144
     62 H24          1.5170    -2.2230     6.8310 hc         1 526       0.038144
     63 H25          4.2740    -2.7480     5.6260 hc         1 526       0.038144
     64 H26          4.3300    -1.6990     4.2030 hc         1 526       0.038144
     65 H27          2.9610    -2.7940     4.4410 hc         1 526       0.038144
     66 H28          3.4120     0.8110     6.6570 hc         1 526       0.038144
     67 H29          4.2030     0.5620     5.0940 hc         1 526       0.038144
     68 H30          4.7810    -0.3020     6.5250 hc         1 526       0.038144
     69 H31          1.1230     9.1070     4.8910 h1         1 526       0.088700
     70 H32         -0.6820    10.0930     3.8040 h1         1 526       0.061700
     71 H33         -0.1720     9.4860     2.2140 h1         1 526       0.061700
     72 H34          3.3330     9.5880     4.1010 hc         1 526       0.067200
     73 H35          2.8520     9.3970     2.3850 hc         1 526       0.067200
     74 H36          2.1680    11.6650     4.3130 h1         1 526       0.052700
     75 H37          2.7550    11.7830     2.6340 h1         1 526       0.052700
@<TRIPOS>BOND
     1    38    37 1
     2    38    36 1
     3    32    29 1
     4    37    35 1
     5    36    34 1
     6    31    29 1
     7    30    29 1
     8    29     8 1
     9    35    34 1
    10    34    19 1
    11     8     9 1
    12     8     7 1
    13     9    10 1
    14    19    18 1
    15     7     4 1
    16    15    13 1
    17    18    20 2
    18    18    17 1
    19    13    12 1
    20    13    14 1
    21    17    14 1
    22    12    10 1
    23    10    11 1
    24     4     3 ar
    25     4     5 ar
    26    14    16 1
    27     3     2 ar
    28    28    11 2
    29    11     5 1
    30    11    27 2
    31     5     6 ar
    32    16    21 1
    33     2    33 1
    34     2     1 ar
    35    21    26 ar
    36    21    22 ar
    37    26    25 ar
    38     6     1 ar
    39    22    23 ar
    40    25    24 ar
    41    23    24 ar
    42     1    39 1
    43     3    40 1
    44     6    41 1
    45     7    42 1
    46     7    43 1
    47     8    44 1
    48     9    45 1
    49     9    46 1
    50    12    47 1
    51    12    48 1
    52    13    49 1
    53    14    50 1
    54    15    51 1
    55    16    52 1
    56    16    53 1
    57    17    54 1
    58    22    55 1
    59    23    56 1
    60    24    57 1
    61    25    58 1
    62    26    59 1
    63    30    60 1
    64    30    61 1
    65    30    62 1
    66    31    63 1
    67    31    64 1
    68    31    65 1
    69    32    66 1
    70    32    67 1
    71    32    68 1
    72    34    69 1
    73    35    70 1
    74    35    71 1
    75    36    72 1
    76    36    73 1
    77    38    74 1
    78    38    75 1
@<TRIPOS>SUBSTRUCTURE
     1 526         1 TEMP              0 ****  ****    0 ROOT
