@<TRIPOS>MOLECULE
molecule
   60    63     1     0     0
SMALL
bcc


@<TRIPOS>ATOM
      1 S1           0.0000     0.0000     0.0000 ss         1 527      -0.196800
      2 C2           1.7840     0.0000     0.0000 cc         1 527       0.062300
      3 C3           2.0780     0.0000     1.3620 cd         1 527       0.049100
      4 C4           1.0350     0.0090     2.2540 cd         1 527      -0.017900
      5 C5          -0.2590     0.0110     1.7660 cc         1 527      -0.061100
      6 C6           2.6730    -0.0050    -1.1000 c          1 527       0.892200
      7 O7           3.8750    -0.0040    -0.9130 o          1 527      -0.806800
      8 O8           2.1870    -0.0130    -2.3600 o          1 527      -0.806800
      9 C9          -1.5330     0.0180     2.5160 ca         1 527       0.101000
     10 C10         -2.6080    -0.7520     2.0750 ca         1 527      -0.197000
     11 C11         -3.7980    -0.7450     2.7880 ca         1 527       0.186600
     12 C12         -3.9190     0.0380     3.9300 ca         1 527      -0.238000
     13 C13         -2.8540     0.8050     4.3630 ca         1 527      -0.097000
     14 C14         -1.6640     0.8000     3.6650 ca         1 527      -0.163000
     15 Br19         1.3620     0.0170     4.1170 br         1 527      -0.116100
     16 O20          3.3640    -0.0020     1.7960 os         1 527      -0.254900
     17 C21          3.7510    -1.3700     1.9340 c3         1 527       0.019400
     18 C22          5.1780    -1.4430     2.4160 c          1 527       0.907600
     19 O25          5.7990    -0.4270     2.6200 o          1 527      -0.854300
     20 O26          5.7580    -2.6360     2.6180 o          1 527      -0.854300
     21 N29         -4.8780    -1.5180     2.3540 nu         1 527      -0.836600
     22 C30         -6.1370    -1.5040     3.1030 c3         1 527       0.255500
     23 C31         -7.2900    -1.8780     2.1670 c3         1 527      -0.117900
     24 C32         -8.6090    -1.8280     2.9450 c3         1 527       0.236800
     25 N33         -8.4900    -2.6880     4.1310 n3         1 527      -0.817500
     26 C34         -7.3640    -2.4750     5.0490 c3         1 527       0.236800
     27 C35         -6.0590    -2.5160     4.2480 c3         1 527      -0.117900
     28 S46         -9.6060    -3.8760     4.4250 s6         1 527       1.328900
     29 O47        -10.7680    -3.3880     3.7680 o          1 527      -0.630300
     30 O48         -9.5430    -4.0240     5.8370 o          1 527      -0.630300
     31 C49         -8.9110    -5.3180     3.5710 c3         1 527      -0.173300
     32 C50         -9.8290    -6.4990     3.7510 ca         1 527      -0.086300
     33 C53        -10.8390    -6.7350     2.8380 ca         1 527      -0.110000
     34 C54        -11.6820    -7.8180     3.0020 ca         1 527      -0.126500
     35 C55        -11.5130    -8.6670     4.0810 ca         1 527      -0.125000
     36 C56        -10.5020    -8.4320     4.9940 ca         1 527      -0.126500
     37 C57         -9.6580    -7.3500     4.8270 ca         1 527      -0.110000
     38 H10         -2.5120    -1.3610     1.1850 ha         1 527       0.139000
     39 H12         -4.8500     0.0450     4.4840 ha         1 527       0.108000
     40 H13         -2.9540     1.4130     5.2540 ha         1 527       0.113000
     41 H14         -0.8320     1.4030     4.0080 ha         1 527       0.153000
     42 H211         3.6680    -1.8680     0.9760 h1         1 527       0.025200
     43 H212         3.1030    -1.8580     2.6520 h1         1 527       0.025200
     44 HN29        -4.7960    -2.0700     1.5230 hn         1 527       0.434800
     45 H30         -6.3090    -0.5150     3.5090 h1         1 527       0.062700
     46 H311        -7.3300    -1.1730     1.3450 hc         1 527       0.055450
     47 H312        -7.1350    -2.8790     1.7850 hc         1 527       0.055450
     48 H321        -9.4140    -2.1870     2.3160 h1         1 527       0.057700
     49 H322        -8.8080    -0.8090     3.2550 h1         1 527       0.057700
     50 H341        -7.3530    -3.2580     5.7980 h1         1 527       0.057700
     51 H342        -7.4640    -1.5080     5.5280 h1         1 527       0.057700
     52 H351        -5.2300    -2.2630     4.8970 hc         1 527       0.055450
     53 H352        -5.9170    -3.5100     3.8410 hc         1 527       0.055450
     54 H491        -8.8080    -5.0970     2.5160 h1         1 527       0.107700
     55 H492        -7.9380    -5.5500     3.9880 h1         1 527       0.107700
     56 H53        -10.9710    -6.0700     1.9930 ha         1 527       0.140500
     57 H54        -12.4740    -8.0030     2.2860 ha         1 527       0.131000
     58 H55        -12.1740    -9.5150     4.2110 ha         1 527       0.126000
     59 H56        -10.3690    -9.0980     5.8380 ha         1 527       0.131000
     60 H57         -8.8650    -7.1660     5.5420 ha         1 527       0.140500
@<TRIPOS>BOND
     1     1     2 1
     2     1     5 1
     3     2     3 2
     4     2     6 1
     5     3     4 1
     6     3    16 1
     7     4     5 2
     8     4    15 1
     9     5     9 1
    10     6     7 1
    11     6     8 1
    12     9    10 ar
    13     9    14 ar
    14    10    11 ar
    15    10    38 1
    16    11    12 ar
    17    11    21 1
    18    12    13 ar
    19    12    39 1
    20    13    14 ar
    21    13    40 1
    22    14    41 1
    23    16    17 1
    24    17    18 1
    25    17    42 1
    26    17    43 1
    27    18    19 1
    28    18    20 1
    29    21    22 1
    30    21    44 1
    31    22    23 1
    32    22    27 1
    33    22    45 1
    34    23    24 1
    35    23    46 1
    36    23    47 1
    37    24    25 1
    38    24    48 1
    39    24    49 1
    40    25    26 1
    41    25    28 1
    42    26    27 1
    43    26    50 1
    44    26    51 1
    45    27    52 1
    46    27    53 1
    47    28    29 2
    48    28    30 2
    49    28    31 1
    50    31    32 1
    51    31    54 1
    52    31    55 1
    53    32    33 ar
    54    32    37 ar
    55    33    34 ar
    56    33    56 1
    57    34    35 ar
    58    34    57 1
    59    35    36 ar
    60    35    58 1
    61    36    37 ar
    62    36    59 1
    63    37    60 1
@<TRIPOS>SUBSTRUCTURE
     1 527         1 TEMP              0 ****  ****    0 ROOT
