@<TRIPOS>MOLECULE
molecule
   65    66     1     0     0
SMALL
bcc


@<TRIPOS>ATOM
      1 C37          0.0000     0.0000     0.0000 ca         1 528      -0.125500
      2 C38          1.3820     0.0000     0.0000 ca         1 528      -0.130500
      3 C41          2.0720     0.0000     1.1980 ca         1 528      -0.141000
      4 C40          1.3810     0.0010     2.3950 ca         1 528      -0.130500
      5 C39         -0.0020     0.0020     2.3940 ca         1 528      -0.125500
      6 C36         -0.6920     0.0010     1.1960 ca         1 528      -0.074300
      7 C35         -2.1990     0.0010     1.1960 c3         1 528      -0.029100
      8 C34         -2.7090    -1.4410     1.1960 c3         1 528      -0.056400
      9 C33         -4.2400    -1.4410     1.1950 c3         1 528      -0.230600
     10 S32         -4.8440    -3.1510     1.1950 s6         1 528       1.333900
     11 O32         -4.5480    -3.7850    -0.0420 o          1 528      -0.660800
     12 O33         -4.5500    -3.7840     2.4320 o          1 528      -0.660800
     13 N31         -6.4940    -3.0050     1.1940 n7         1 528      -0.852100
     14 C27         -7.1790    -2.4390     0.0290 c3         1 528       0.077300
     15 C28         -8.0020    -3.5310    -0.6580 c3         1 528      -0.067700
     16 C30         -8.6060    -2.9770    -1.9500 c3         1 528      -0.092600
     17 C29         -7.0980    -4.7200    -0.9880 c3         1 528      -0.092600
     18 P24         -8.2840    -1.0940     0.5680 p5         1 528       0.966400
     19 O25         -9.5840    -1.7200     1.2830 o          1 528      -0.776000
     20 O26         -7.5690    -0.2200     1.5240 o          1 528      -0.776000
     21 C15         -8.8020    -0.1140    -0.8800 c3         1 528      -0.240600
     22 C1          -9.5210     1.1510    -0.4100 c3         1 528      -0.121400
     23 C2         -10.9050     0.7940     0.0680 c          1 528       0.885600
     24 O14        -11.7240     1.7520     0.5300 o          1 528      -0.805300
     25 O13        -11.2770    -0.3550     0.0360 o          1 528      -0.805300
     26 C3          -9.6210     2.1270    -1.5530 ca         1 528       0.044700
     27 C8          -9.0420     3.3780    -1.4470 ca         1 528      -0.111000
     28 C4         -10.2870     1.7680    -2.7110 ca         1 528      -0.059000
     29 C5         -10.3790     2.6640    -3.7600 ca         1 528      -0.132000
     30 C6          -9.8040     3.9170    -3.6530 ca         1 528      -0.163000
     31 C7          -9.1340     4.2720    -2.4970 ca         1 528      -0.214300
     32 C9          -8.5030     5.6360    -2.3810 c3         1 528       0.160100
     33 N10         -7.1200     5.5800    -2.8740 nz         1 528      -0.812600
     34 H37         -0.5410    -0.0000    -0.9380 ha         1 528       0.132500
     35 H38          1.9240    -0.0010    -0.9380 ha         1 528       0.122500
     36 H41          3.1560    -0.0000     1.1980 ha         1 528       0.120000
     37 H40          1.9220     0.0010     3.3330 ha         1 528       0.122500
     38 H39         -0.5440     0.0030     3.3320 ha         1 528       0.132500
     39 H351        -2.5600     0.5120     0.3110 hc         1 528       0.051700
     40 H352        -2.5600     0.5120     2.0800 hc         1 528       0.051700
     41 H341        -2.3480    -1.9520     0.3110 hc         1 528       0.049200
     42 H342        -2.3480    -1.9520     2.0800 hc         1 528       0.049200
     43 H331        -4.6010    -0.9300     0.3110 h1         1 528       0.112200
     44 H332        -4.6010    -0.9300     2.0800 h1         1 528       0.112200
     45 HN31        -7.0200    -3.2710     2.0030 hn         1 528       0.472800
     46 H27         -6.4460    -2.0480    -0.6660 h1         1 528       0.030700
     47 H28         -8.7970    -3.8540     0.0030 hc         1 528       0.092700
     48 H301        -9.5990    -2.5930    -1.7490 hc         1 528       0.028700
     49 H302        -8.6670    -3.7670    -2.6890 hc         1 528       0.028700
     50 H303        -7.9800    -2.1770    -2.3280 hc         1 528       0.028700
     51 H291        -6.2410    -4.3760    -1.5540 hc         1 528       0.028700
     52 H292        -7.6510    -5.4430    -1.5750 hc         1 528       0.028700
     53 H293        -6.7610    -5.1830    -0.0690 hc         1 528       0.028700
     54 H151        -9.4720    -0.7040    -1.4940 hc         1 528       0.030700
     55 H152        -7.9290     0.1610    -1.4600 hc         1 528       0.030700
     56 H1          -8.9640     1.6020     0.4020 hc         1 528       0.080700
     57 H8          -8.5170     3.6570    -0.5420 ha         1 528       0.135000
     58 H4         -10.7370     0.7870    -2.7960 ha         1 528       0.175000
     59 H5         -10.9020     2.3850    -4.6660 ha         1 528       0.126000
     60 H6          -9.8760     4.6190    -4.4750 ha         1 528       0.095000
     61 H91         -8.5040     5.9480    -1.3440 hx         1 528       0.097200
     62 H92         -9.0680     6.3470    -2.9720 hx         1 528       0.097200
     63 H101        -6.7500     6.5080    -2.9360 hn         1 528       0.441467
     64 H102        -6.5620     5.0410    -2.2410 hn         1 528       0.441467
     65 H103        -7.1050     5.1530    -3.7790 hn         1 528       0.441467
@<TRIPOS>BOND
     1     1     6 ar
     2     1     2 ar
     3     1    34 1
     4     2     3 ar
     5     2    35 1
     6     3     4 ar
     7     3    36 1
     8     4     5 ar
     9     4    37 1
    10     5     6 ar
    11     5    38 1
    12     6     7 1
    13     7     8 1
    14     7    39 1
    15     7    40 1
    16     8     9 1
    17     8    41 1
    18     8    42 1
    19     9    10 1
    20     9    43 1
    21     9    44 1
    22    10    13 1
    23    10    11 2
    24    10    12 2
    25    13    14 1
    26    13    45 1
    27    14    15 1
    28    14    18 1
    29    14    46 1
    30    15    16 1
    31    15    17 1
    32    15    47 1
    33    16    48 1
    34    16    49 1
    35    16    50 1
    36    17    51 1
    37    17    52 1
    38    17    53 1
    39    18    19 1
    40    18    21 1
    41    18    20 1
    42    21    22 1
    43    21    54 1
    44    21    55 1
    45    22    26 1
    46    22    23 1
    47    22    56 1
    48    23    24 1
    49    23    25 1
    50    26    27 ar
    51    26    28 ar
    52    27    31 ar
    53    27    57 1
    54    28    29 ar
    55    28    58 1
    56    29    30 ar
    57    29    59 1
    58    30    31 ar
    59    30    60 1
    60    31    32 1
    61    32    33 1
    62    32    61 1
    63    32    62 1
    64    33    63 1
    65    33    64 1
    66    65    33 1
@<TRIPOS>SUBSTRUCTURE
     1 528         1 TEMP              0 ****  ****    0 ROOT
