@<TRIPOS>MOLECULE
molecule
   44    47     1     0     0
SMALL
bcc


@<TRIPOS>ATOM
      1 N1           0.0000     0.0000     0.0000 n          1 529      -0.399000
      2 C2           1.4710     0.0000     0.0000 c3         1 529       0.071000
      3 C3           1.8390     0.0000     1.4960 c3         1 529       0.069000
      4 N4           0.5380    -0.0010     2.1810 ns         1 529      -0.608900
      5 C5          -0.4400    -0.0000     1.2640 c          1 529       0.816500
      6 N6          -6.9170    -4.1730    -6.4850 nc         1 529      -0.120600
      7 N7          -6.4730    -3.0020    -6.7630 nd         1 529      -0.244300
      8 C8          -5.5700    -2.6190    -5.7920 cd         1 529       0.633600
      9 C9          -5.5170    -3.7580    -4.8410 cd         1 529      -0.270600
     10 C10         -6.3740    -4.6680    -5.3420 cc         1 529       0.047400
     11 C11         -6.6810    -6.0120    -4.7360 cx         1 529      -0.083500
     12 C12         -8.1300    -6.2940    -4.3340 cx         1 529      -0.118900
     13 C13         -7.5280    -6.9830    -5.5600 cx         1 529      -0.118900
     14 C15         -4.0540    -1.2730    -4.7020 c          1 529       0.685500
     15 C16         -3.2870     0.0230    -4.6240 c3         1 529      -0.071400
     16 C18         -2.4140     0.0170    -3.3960 ca         1 529      -0.119300
     17 C19         -1.0430     0.1370    -3.5230 ca         1 529      -0.082000
     18 C20         -0.2390     0.1330    -2.4000 ca         1 529      -0.171500
     19 C21         -0.8100     0.0060    -1.1410 ca         1 529       0.106600
     20 C22         -2.1880    -0.1160    -1.0150 ca         1 529      -0.171500
     21 C23         -2.9860    -0.1050    -2.1430 ca         1 529      -0.082000
     22 O24         -1.6200    -0.0000     1.5560 o          1 529      -0.676500
     23 C25         -4.2700     1.1930    -4.5440 c3         1 529      -0.079100
     24 H2           1.7870    -0.9550    -0.4030 h1         1 529       0.070700
     25 H21          1.7870     0.9550    -0.4030 h1         1 529       0.070700
     26 H3           2.3060     0.9550     1.7060 h1         1 529       0.064700
     27 H31          2.3070    -0.9540     1.7060 h1         1 529       0.064700
     28 H4           0.4040    -0.0010     3.1730 hn         1 529       0.364500
     29 H9          -4.5670    -4.0780    -4.4310 ha         1 529       0.194000
     30 H11         -5.9360    -6.4830    -4.1050 hc         1 529       0.098700
     31 H121        -8.8360    -5.4990    -4.5440 hc         1 529       0.083700
     32 H122        -8.2590    -6.9210    -3.4610 hc         1 529       0.083700
     33 H131        -7.8660    -6.6110    -6.5190 hc         1 529       0.083700
     34 H132        -7.2900    -8.0330    -5.4360 hc         1 529       0.083700
     35 H16         -2.6680     0.1300    -5.5070 hc         1 529       0.082700
     36 H19         -0.5980     0.2360    -4.5060 ha         1 529       0.134000
     37 H20          0.8350     0.2270    -2.5010 ha         1 529       0.160000
     38 H22         -2.6370    -0.2110    -0.0340 ha         1 529       0.160000
     39 H23         -4.0610    -0.1990    -2.0460 ha         1 529       0.134000
     40 H251        -5.1250     0.9060    -3.9440 hc         1 529       0.047700
     41 H252        -3.7810     2.0460    -4.0910 hc         1 529       0.047700
     42 H253        -4.6010     1.4550    -5.5420 hc         1 529       0.047700
     43 O17         -3.9060    -2.1140    -3.8480 o          1 529      -0.528100
     44 N14         -4.9040    -1.4920    -5.7250 ne         1 529      -0.564100
@<TRIPOS>BOND
     1     1     2 1
     2     1     5 1
     3     1    19 1
     4     2     3 1
     5     2    24 1
     6     2    25 1
     7     3     4 1
     8     3    26 1
     9     3    27 1
    10     4     5 1
    11     4    28 1
    12     5    22 2
    13     6     7 2
    14     6    10 1
    15     7     8 1
    16     8     9 1
    17     8    44 2
    18     9    10 2
    19     9    29 1
    20    10    11 1
    21    11    12 1
    22    11    13 1
    23    11    30 1
    24    12    13 1
    25    12    31 1
    26    12    32 1
    27    13    33 1
    28    13    34 1
    29    44    14 1
    30    14    15 1
    31    14    43 2
    32    15    16 1
    33    15    23 1
    34    15    35 1
    35    16    17 ar
    36    16    21 ar
    37    17    18 ar
    38    17    36 1
    39    18    19 ar
    40    18    37 1
    41    19    20 ar
    42    20    21 ar
    43    20    38 1
    44    21    39 1
    45    23    40 1
    46    23    41 1
    47    23    42 1
@<TRIPOS>SUBSTRUCTURE
     1 529         1 TEMP              0 ****  ****    0 ROOT
