@<TRIPOS>MOLECULE
52A
   20    20     1     0     0
SMALL
bcc


@<TRIPOS>ATOM
      1 N           1.4020    0.1290   -0.1230 n3        1 52A     -0.895800
      2 CA         -0.0420    0.1350    0.0920 c3        1 52A      0.031200
      3 C          -0.3570    0.3880    1.6070 c         1 52A      0.920600
      4 O          -1.2530    1.2220    1.9200 o         1 52A     -0.863800
      5 OXT         0.3000   -0.2730    2.4680 o         1 52A     -0.863800
      6 CB1        -0.7640   -1.1770   -0.3320 c3        1 52A     -0.104400
      7 CB2        -0.7350    1.2160   -0.7970 c3        1 52A      0.168800
      8 CG1        -1.9860   -0.7660   -1.1740 c3        1 52A      0.052500
      9 NG2        -2.0100    0.7030   -1.2860 n3        1 52A     -0.773200
     10 CD         -2.0150   -1.4750   -2.5590 c         1 52A      0.925600
     11 OE1        -3.1530   -1.7940   -3.0180 o         1 52A     -0.870300
     12 OE2        -0.9360   -1.7630   -3.1540 o         1 52A     -0.870300
     13 HN1         1.8330   -0.3190    0.6670 hn        1 52A      0.331300
     14 HN2         1.6100   -0.4110   -0.9420 hn        1 52A      0.331300
     15 HB11       -0.0990   -1.8340   -0.9480 hc        1 52A      0.038700
     16 HB12       -1.0800   -1.7490    0.5730 hc        1 52A      0.038700
     17 HB21       -0.8760    2.1560   -0.2020 h1        1 52A      0.032200
     18 HB22       -0.1050    1.4500   -1.6990 h1        1 52A      0.032200
     19 HG1        -2.9230   -1.1090   -0.6450 h1        1 52A      0.016700
     20 HNG2       -2.7370    1.0420   -0.6780 hn        1 52A      0.320800
@<TRIPOS>BOND
     1    1    2 1
     2    1   13 1
     3    1   14 1
     4    2    3 1
     5    2    6 1
     6    2    7 1
     7    3    4 1
     8    3    5 1
     9    6    8 1
    10    6   15 1
    11    6   16 1
    12    7    9 1
    13    7   17 1
    14    7   18 1
    15    8    9 1
    16    8   10 1
    17    8   19 1
    18    9   20 1
    19   10   11 1
    20   10   12 1
@<TRIPOS>SUBSTRUCTURE
     1 52A         1 TEMP              0 ****  ****    0 ROOT
