@<TRIPOS>MOLECULE
molecule
   23    24     1     0     0
SMALL
bcc


@<TRIPOS>ATOM
      1 C1           0.0000     0.0000     0.0000 ca         1 52B      -0.091000
      2 F1           2.5730     2.5400     0.3620 f          1 52B      -0.224300
      3 Cl1         -2.4170     0.0020     1.2120 cl         1 52B      -0.131400
      4 C2           1.3990     0.0030     2.4120 ca         1 52B       0.014400
      5 F2           4.5760     2.9070    -0.6740 f          1 52B      -0.224300
      6 Cl2          2.2560     0.0040     3.9210 cl         1 52B      -0.103400
      7 C3           1.3940     0.0000     0.0000 ca         1 52B      -0.075800
      8 F3           4.5020     2.5620     1.5840 f          1 52B      -0.224300
      9 C4          -0.6810     0.0010     1.2020 ca         1 52B       0.006400
     10 C5           0.0150     0.0030     2.4000 ca         1 52B      -0.113000
     11 C6           2.0980     0.0000     1.2170 ca         1 52B       0.140100
     12 C7           2.1620    -0.0000    -1.2550 ce         1 52B      -0.106200
     13 C8           3.4750     0.3330    -1.1940 cf         1 52B      -0.151400
     14 C9           4.0910     0.7060     0.1290 c3         1 52B       0.153300
     15 C10          4.2660     0.3300    -2.3710 c          1 52B       0.872800
     16 O11          3.4540    -0.0020     1.1940 os         1 52B      -0.303900
     17 O12          5.5720     0.6620    -2.3080 o          1 52B      -0.824800
     18 O13          3.7660     0.0280    -3.4390 o          1 52B      -0.824800
     19 C14          3.9320     2.2110     0.3550 c3         1 52B       0.583900
     20 H1          -0.5420    -0.1270    -0.9290 ha         1 52B       0.150000
     21 H5          -0.5290     0.0040     3.3360 ha         1 52B       0.145000
     22 H7           1.6960    -0.2720    -2.1950 ha         1 52B       0.174000
     23 H9           5.1440     0.4520     0.1140 h1         1 52B       0.157700
@<TRIPOS>BOND
     1     1     7 ar
     2     1     9 ar
     3     1    20 1
     4     2    19 1
     5     3     9 1
     6     4     6 1
     7     4    10 ar
     8     4    11 ar
     9     5    19 1
    10     7    11 ar
    11     7    12 1
    12     8    19 1
    13     9    10 ar
    14    10    21 1
    15    11    16 1
    16    12    13 2
    17    12    22 1
    18    13    14 1
    19    13    15 1
    20    14    16 1
    21    14    19 1
    22    14    23 1
    23    15    17 1
    24    15    18 1
@<TRIPOS>SUBSTRUCTURE
     1 52B         1 TEMP              0 ****  ****    0 ROOT
