@<TRIPOS>MOLECULE
52B
   23    24     1     0     0
SMALL
bcc


@<TRIPOS>ATOM
      1 C1         -0.0710   -0.1990    0.0150 ca        1 52B     -0.095000
      2 F1          3.0510    3.0720    0.2450 f         1 52B     -0.243300
      3 CL1        -2.4390   -0.5200    1.2410 cl        1 52B     -0.120400
      4 C2          1.3080    0.0630    2.4510 ca        1 52B     -0.000600
      5 F2          5.0130    2.9250   -0.6690 f         1 52B     -0.243300
      6 CL2         2.0960    0.2100    3.9510 cl        1 52B     -0.086400
      7 C3          1.3100    0.0020    0.0050 ca        1 52B     -0.068800
      8 F3          4.7890    2.6660    1.4640 f         1 52B     -0.243300
      9 C4         -0.7510   -0.2720    1.2320 ca        1 52B     -0.005600
     10 C5         -0.0750   -0.1470    2.4470 ca        1 52B     -0.117000
     11 C6          2.0030    0.1440    1.2310 ca        1 52B      0.135100
     12 C7          2.0810    0.0450   -1.2210 ce        1 52B     -0.118200
     13 C8          3.3780    0.3930   -1.1880 cf        1 52B     -0.176400
     14 C9          4.0270    0.7720    0.0950 c3        1 52B      0.163300
     15 C10         4.2880    0.2870   -2.4140 c         1 52B      0.918800
     16 O11         3.3730    0.3060    1.2810 os        1 52B     -0.306900
     17 O12         5.5190    0.1310   -2.1840 o         1 52B     -0.807800
     18 O13         3.7460    0.3250   -3.5480 o         1 52B     -0.807800
     19 C14         4.2070    2.3330    0.2630 c3        1 52B      0.603900
     20 H1         -0.6100   -0.3020   -0.9390 ha        1 52B      0.152000
     21 H5         -0.6230   -0.2100    3.3990 ha        1 52B      0.149000
     22 H7          1.5950   -0.2330   -2.1690 ha        1 52B      0.166000
     23 H9          5.0640    0.3190    0.1510 h1        1 52B      0.151700
@<TRIPOS>BOND
     1    1    7 ar  
     2    1    9 ar  
     3    1   20 1   
     4    2   19 1   
     5    3    9 1   
     6    4    6 1   
     7    4   10 ar  
     8    4   11 ar  
     9    5   19 1   
    10    7   11 ar  
    11    7   12 1   
    12    8   19 1   
    13    9   10 ar  
    14   10   21 1   
    15   11   16 1   
    16   12   13 2   
    17   12   22 1   
    18   13   14 1   
    19   13   15 1   
    20   14   16 1   
    21   14   19 1   
    22   14   23 1   
    23   15   17 1   
    24   15   18 1   
@<TRIPOS>SUBSTRUCTURE
     1 52B         1 TEMP              0 ****  ****    0 ROOT
