@<TRIPOS>MOLECULE
molecule
   17    18     1     0     0
SMALL
bcc


@<TRIPOS>ATOM
      1 C1           0.0000     0.0000     0.0000 ca         1 52C      -0.129000
      2 C2           1.3840     0.0000     0.0000 ca         1 52C      -0.098000
      3 C3           2.0820     0.0000     1.1940 ca         1 52C      -0.126000
      4 C4           1.4010     0.0010     2.3950 ca         1 52C       0.068400
      5 C5           0.0050     0.0020     2.4020 ca         1 52C      -0.137500
      6 C6          -0.6920     0.0010     1.1930 ca         1 52C      -0.105000
      7 C7          -0.7330     0.0020     3.6850 cc         1 52C       0.470000
      8 N8          -0.2050     0.0030     4.8910 nd         1 52C      -0.394000
      9 N9          -1.1260     0.0030     5.7860 nd         1 52C      -0.005000
     10 N10         -2.2890     0.0030     5.2310 nc         1 52C      -0.210800
     11 N11         -2.0800     0.0080     3.8410 na         1 52C      -0.189400
     12 Cl1          2.2780     0.0020     3.8930 cl         1 52C      -0.047400
     13 H1          -0.5410    -0.0000    -0.9390 ha         1 52C       0.141000
     14 H2           1.9230    -0.0010    -0.9400 ha         1 52C       0.143000
     15 H6          -1.7750     0.0010     1.1920 ha         1 52C       0.128000
     16 H3           3.1660    -0.0000     1.1870 ha         1 52C       0.153000
     17 H11         -2.7750     0.0090     3.1210 hn         1 52C       0.336700
@<TRIPOS>BOND
     1     1     2 ar  
     2     1     6 ar  
     3     2     3 ar  
     4     3     4 ar  
     5     4     5 ar  
     6     4    12 1   
     7     5     6 ar  
     8     5     7 1   
     9     7     8 2   
    10     7    11 1   
    11     8     9 1   
    12     9    10 2   
    13    10    11 1   
    14     1    13 1   
    15     2    14 1   
    16     6    15 1   
    17     3    16 1   
    18    11    17 1   
@<TRIPOS>SUBSTRUCTURE
     1 52C         1 TEMP              0 ****  ****    0 ROOT
