@<TRIPOS>MOLECULE
52C
   17    18     1     0     0
SMALL
bcc


@<TRIPOS>ATOM
      1 C1          0.0340   -0.4560    0.0360 ca        1 52C     -0.132000
      2 C2          1.3700   -0.0570   -0.0260 ca        1 52C     -0.099000
      3 C3          2.0380    0.3390    1.1290 ca        1 52C     -0.130000
      4 C4          1.3710    0.3400    2.3610 ca        1 52C      0.057400
      5 C5          0.0270   -0.0640    2.4280 ca        1 52C     -0.140500
      6 C6         -0.6350   -0.4600    1.2560 ca        1 52C     -0.101000
      7 C7         -0.6910   -0.0940    3.6930 cc        1 52C      0.444000
      8 N8         -0.3420   -0.6480    4.8960 nd        1 52C     -0.346000
      9 N9         -1.3510   -0.4150    5.7310 nd        1 52C     -0.050000
     10 N10        -2.3130    0.2350    5.1820 nc        1 52C     -0.191800
     11 N11        -1.9700    0.4670    3.9090 na        1 52C     -0.180400
     12 CL1         2.2080    0.8430    3.7440 cl        1 52C     -0.049400
     13 H1         -0.4900   -0.7710   -0.8780 ha        1 52C      0.144000
     14 H2          1.9010   -0.0580   -0.9910 ha        1 52C      0.145000
     15 H6         -1.6840   -0.7900    1.3060 ha        1 52C      0.141000
     16 H3          3.0930    0.6520    1.0780 ha        1 52C      0.156000
     17 H11        -2.5450    0.9710    3.2760 hn        1 52C      0.334700
@<TRIPOS>BOND
     1    1    2 ar  
     2    1    6 ar  
     3    1   13 1   
     4    2    3 ar  
     5    2   14 1   
     6    3    4 ar  
     7    3   16 1   
     8    4    5 ar  
     9    4   12 1   
    10    5    6 ar  
    11    5    7 1   
    12    6   15 1   
    13    7    8 2   
    14    7   11 1   
    15    8    9 1   
    16    9   10 2   
    17   10   11 1   
    18   11   17 1   
@<TRIPOS>SUBSTRUCTURE
     1 52C         1 TEMP              0 ****  ****    0 ROOT
