@<TRIPOS>MOLECULE
molecule
   42    44     1     0     0
SMALL
bcc


@<TRIPOS>ATOM
      1 O8           0.0000     0.0000     0.0000 o          1 52D      -0.522100
      2 C7           1.2160     0.0000     0.0000 c          1 52D       0.594300
      3 C9           1.9560     0.0000     1.2830 ca         1 52D      -0.128600
      4 C14          3.2770     0.4540     1.3510 ca         1 52D      -0.216300
      5 C13          3.9300     0.4350     2.5670 ca         1 52D       0.409200
      6 N12          3.3250    -0.0030     3.6530 nb         1 52D      -0.677000
      7 C11          2.0810    -0.4390     3.6340 ca         1 52D       0.409200
      8 C10          1.3520    -0.4500     2.4610 ca         1 52D      -0.216300
      9 C6           1.9530    -0.0040    -1.2760 ca         1 52D      -0.218600
     10 C1           3.2720    -0.4680    -1.3230 ca         1 52D      -0.044500
     11 C5           1.3340     0.4490    -2.4460 ca         1 52D      -0.044500
     12 C4           2.0260     0.4430    -3.6360 ca         1 52D      -0.209000
     13 C3           3.3390    -0.0140    -3.6770 ca         1 52D       0.175100
     14 C2           3.9570    -0.4710    -2.5170 ca         1 52D      -0.209000
     15 O15          4.0180    -0.0190    -4.8510 os         1 52D      -0.303900
     16 C16          5.3620    -0.5010    -4.8210 c3         1 52D       0.141400
     17 C17          5.9610    -0.4310    -6.2280 c3         1 52D       0.153800
     18 N23          6.0600     0.9730    -6.6490 n3         1 52D      -0.694600
     19 C19          7.1480     1.6720    -5.9190 c3         1 52D       0.142300
     20 C22          6.4070     1.0740    -8.0820 c3         1 52D       0.142300
     21 C21          7.2950     2.3210    -8.2470 c3         1 52D      -0.087400
     22 C20          7.4520     2.8950    -6.8190 c3         1 52D      -0.087400
     23 H14          3.7800     0.8160     0.4620 ha         1 52D       0.154500
     24 H13          4.9530     0.7850     2.6300 h4         1 52D       0.026600
     25 H11          1.6230    -0.7880     4.5520 h4         1 52D       0.026600
     26 H10          0.3300    -0.8110     2.4520 ha         1 52D       0.154500
     27 H1           3.7550    -0.8240    -0.4200 ha         1 52D       0.148500
     28 H5           0.3110     0.8050    -2.4160 ha         1 52D       0.148500
     29 H4           1.5480     0.7960    -4.5420 ha         1 52D       0.145000
     30 H2           4.9790    -0.8280    -2.5530 ha         1 52D       0.145000
     31 H16          5.9500     0.1110    -4.1480 h1         1 52D       0.037700
     32 H16A         5.3700    -1.5280    -4.4760 h1         1 52D       0.037700
     33 H17          6.9480    -0.8770    -6.2230 h1         1 52D       0.049200
     34 H17A         5.3240    -0.9710    -6.9190 h1         1 52D       0.049200
     35 H19          6.8070     1.9930    -4.9420 h1         1 52D       0.040950
     36 H19A         8.0210     1.0350    -5.8360 h1         1 52D       0.040950
     37 H22          6.9520     0.1900    -8.3920 h1         1 52D       0.040950
     38 H22A         5.5050     1.1830    -8.6720 h1         1 52D       0.040950
     39 H21          6.8090     3.0450    -8.8900 hc         1 52D       0.050450
     40 H21A         8.2620     2.0430    -8.6470 hc         1 52D       0.050450
     41 H20          6.7320     3.6860    -6.6440 hc         1 52D       0.050450
     42 H20A         8.4640     3.2460    -6.6580 hc         1 52D       0.050450
@<TRIPOS>BOND
     1     2     1 2
     2     9     2 1
     3     2     3 1
     4     4     3 ar
     5     3     8 ar
     6     4     5 ar
     7     4    23 1
     8     5     6 ar
     9     5    24 1
    10     6     7 ar
    11     8     7 ar
    12     7    25 1
    13     8    26 1
    14    11     9 ar
    15     9    10 ar
    16    14    10 ar
    17    10    27 1
    18    12    11 ar
    19    11    28 1
    20    12    13 ar
    21    12    29 1
    22    15    13 1
    23    13    14 ar
    24    14    30 1
    25    15    16 1
    26    17    16 1
    27    16    31 1
    28    16    32 1
    29    17    18 1
    30    17    33 1
    31    17    34 1
    32    19    18 1
    33    18    20 1
    34    19    22 1
    35    19    35 1
    36    19    36 1
    37    20    21 1
    38    20    37 1
    39    20    38 1
    40    22    21 1
    41    21    39 1
    42    21    40 1
    43    22    41 1
    44    22    42 1
@<TRIPOS>SUBSTRUCTURE
     1 52D         1 TEMP              0 ****  ****    0 ROOT
