@<TRIPOS>MOLECULE
52E
   61    63     1     0     0
SMALL
bcc


@<TRIPOS>ATOM
      1 N1           0.0000     0.0000     0.0000 ns         1 52E      -0.223900
      2 C6           2.0020     1.1780    -2.1440 ca         1 52E      -0.068600
      3 N3          -6.3330    -2.5830     0.6440 ns         1 52E      -0.090400
      4 C5           2.4630     1.1770    -3.4500 ca         1 52E       0.110900
      5 C15         -3.7330     1.1820     2.4580 c3         1 52E      -0.057400
      6 C16         -2.9520     2.4970     2.4420 c3         1 52E       0.186100
      7 C17         -3.9240     3.6700     2.5900 c3         1 52E       0.180400
      8 O30         -3.1870     4.8890     2.6910 oh         1 52E      -0.598800
      9 O31         -2.2470     2.6160     1.2050 oh         1 52E      -0.598800
     10 N2          -2.0220     0.0050     1.1670 n          1 52E      -0.145800
     11 N4          -6.8590    -4.7240     1.4590 nb         1 52E      -0.550000
     12 C7           2.8900    -0.0050    -4.0300 ca         1 52E      -0.121000
     13 C8           2.8550    -1.1830    -3.3060 ca         1 52E      -0.076000
     14 C9           2.3940    -1.1800    -2.0020 ca         1 52E      -0.088000
     15 C10          1.9670    -0.0010    -1.4210 ca         1 52E      -0.092300
     16 C11          1.4650     0.0000     0.0000 c3         1 52E       0.119300
     17 C12         -0.6740     0.0000     1.1670 c          1 52E       0.604100
     18 C13         -2.7540     0.0110    -0.1020 c3         1 52E       0.067300
     19 C14         -2.7540     0.0060     2.4350 c3         1 52E       0.031700
     20 C18         -3.5280    -1.3050     2.5780 c3         1 52E       0.224400
     21 C20         -7.0700    -3.7650     0.5620 ca         1 52E       0.370200
     22 C21         -8.0010    -3.9100    -0.4450 ca         1 52E      -0.272300
     23 C22         -8.7340    -5.1060    -0.5130 ca         1 52E       0.017000
     24 C23         -8.4810    -6.1080     0.4610 ca         1 52E      -0.190300
     25 C24         -7.5120    -5.8630     1.4470 ca         1 52E       0.456200
     26 C25         -9.6990    -5.3340    -1.5050 ca         1 52E      -0.107000
     27 C26        -10.3810    -6.5130    -1.5200 ca         1 52E      -0.074000
     28 C27        -10.1330    -7.4980    -0.5640 ca         1 52E      -0.116000
     29 C28         -9.2030    -7.3110     0.4130 ca         1 52E      -0.057000
     30 O29         -0.0660    -0.0040     2.2200 o          1 52E      -0.719100
     31 O32         -4.5690    -1.3650     1.5680 os         1 52E      -0.437900
     32 O33         -5.1620    -3.3490     2.3680 o          1 52E      -0.585000
     33 F35          2.4970     2.3270    -4.1560 f          1 52E      -0.119900
     34 H1          -0.5000    -0.0420    -0.8660 hn         1 52E       0.180500
     35 H2          -6.5410    -1.8200     0.0310 hn         1 52E       0.169500
     36 H3          -4.3770     1.1330     1.5880 hc         1 52E       0.033700
     37 H4          -4.3370     1.1320     3.3570 hc         1 52E       0.033700
     38 H5          -2.2450     2.5070     3.2630 h1         1 52E       0.024700
     39 H6          -4.5210     3.5330     3.4840 h1         1 52E      -0.004800
     40 H7          -4.5740     3.7120     1.7250 h1         1 52E      -0.004800
     41 H8          -3.7600     5.5810     2.9770 ho         1 52E       0.397000
     42 H9          -1.8370     3.4640     1.1570 ho         1 52E       0.407000
     43 H10          3.2510    -0.0080    -5.0510 ha         1 52E       0.122000
     44 H11          3.1890    -2.1080    -3.7610 ha         1 52E       0.110000
     45 H12          2.3670    -2.1030    -1.4360 ha         1 52E       0.117000
     46 H13          1.8260     0.8850     0.5100 h1         1 52E       0.034700
     47 H14          1.8260    -0.8840     0.5110 h1         1 52E       0.034700
     48 H15         -2.3850     0.8140    -0.7290 h1         1 52E       0.012700
     49 H16         -2.6090    -0.9360    -0.6070 h1         1 52E       0.012700
     50 H17         -3.8100     0.1590     0.0910 h1         1 52E       0.012700
     51 H18         -2.0540     0.1030     3.2560 h1         1 52E       0.085700
     52 H19         -2.8500    -2.1400     2.4480 h1         1 52E       0.023200
     53 H20         -3.9770    -1.3540     3.5620 h1         1 52E       0.023200
     54 H21         -8.0030    -3.2240    -1.2830 ha         1 52E       0.120000
     55 H22         -7.3050    -6.6140     2.1990 h4         1 52E      -0.013900
     56 H23         -9.9020    -4.5780    -2.2540 ha         1 52E       0.108000
     57 H24        -11.1260    -6.6890    -2.2860 ha         1 52E       0.101000
     58 H25        -10.6900    -8.4260    -0.6000 ha         1 52E       0.104000
     59 H26         -9.0220    -8.0860     1.1480 ha         1 52E       0.108000
     60 Cl1          1.4720     2.6610    -1.4110 cl         1 52E       0.019600
     61 C19         -5.3480    -2.4640     1.5560 c          1 52E       0.648100
@<TRIPOS>BOND
     1     1    16 1   
     2     1    17 1   
     3     1    34 1   
     4     2     4 ar  
     5     2    15 ar  
     6     2    60 1   
     7     3    21 1   
     8     3    35 1   
     9     3    61 1   
    10     4    12 ar  
    11     4    33 1   
    12     5     6 1   
    13     5    19 1   
    14     5    36 1   
    15     5    37 1   
    16     6     7 1   
    17     6     9 1   
    18     6    38 1   
    19     7     8 1   
    20     7    39 1   
    21     7    40 1   
    22     8    41 1   
    23     9    42 1   
    24    10    17 1   
    25    10    18 1   
    26    10    19 1   
    27    11    21 ar  
    28    11    25 ar  
    29    12    13 ar  
    30    12    43 1   
    31    13    14 ar  
    32    13    44 1   
    33    14    15 ar  
    34    14    45 1   
    35    15    16 1   
    36    16    46 1   
    37    16    47 1   
    38    17    30 2   
    39    18    48 1   
    40    18    49 1   
    41    18    50 1   
    42    19    20 1   
    43    19    51 1   
    44    20    31 1   
    45    20    52 1   
    46    20    53 1   
    47    21    22 ar  
    48    22    23 ar  
    49    22    54 1   
    50    23    24 ar  
    51    23    26 ar  
    52    24    25 ar  
    53    24    29 ar  
    54    25    55 1   
    55    26    27 ar  
    56    26    56 1   
    57    27    28 ar  
    58    27    57 1   
    59    28    29 ar  
    60    28    58 1   
    61    29    59 1   
    62    31    61 1   
    63    32    61 2   
@<TRIPOS>SUBSTRUCTURE
     1 52E         1 TEMP              0 ****  ****    0 ROOT
