@<TRIPOS>MOLECULE
molecule
   61    63     1     0     0
SMALL
bcc


@<TRIPOS>ATOM
      1 N1           0.0000     0.0000     0.0000 ns         1 52E      -0.595900
      2 C6           2.0020     1.1780    -2.1440 ca         1 52E      -0.005600
      3 N3          -6.3330    -2.5830     0.6440 ns         1 52E      -0.538400
      4 C5           2.4630     1.1770    -3.4500 ca         1 52E       0.138900
      5 C15         -3.7330     1.1820     2.4580 c3         1 52E      -0.094400
      6 C16         -2.9520     2.4970     2.4420 c3         1 52E       0.155100
      7 C17         -3.9240     3.6700     2.5900 c3         1 52E       0.098400
      8 O30         -3.1870     4.8890     2.6910 oh         1 52E      -0.616800
      9 O31         -2.2470     2.6160     1.2050 oh         1 52E      -0.604800
     10 N2          -2.0220     0.0050     1.1670 n          1 52E      -0.486800
     11 N4          -6.8590    -4.7240     1.4590 nb         1 52E      -0.681000
     12 C7           2.8900    -0.0050    -4.0300 ca         1 52E      -0.155000
     13 C8           2.8550    -1.1830    -3.3060 ca         1 52E      -0.106000
     14 C9           2.3940    -1.1800    -2.0020 ca         1 52E      -0.121000
     15 C10          1.9670    -0.0010    -1.4210 ca         1 52E      -0.084300
     16 C11          1.4650     0.0000     0.0000 c3         1 52E       0.177300
     17 C12         -0.6740     0.0000     1.1670 c          1 52E       0.799100
     18 C13         -2.7540     0.0110    -0.1020 c3         1 52E       0.099300
     19 C14         -2.7540     0.0060     2.4350 c3         1 52E       0.138700
     20 C18         -3.5280    -1.3050     2.5780 c3         1 52E       0.149400
     21 C20         -7.0700    -3.7650     0.5620 ca         1 52E       0.572200
     22 C21         -8.0010    -3.9100    -0.4450 ca         1 52E      -0.299300
     23 C22         -8.7340    -5.1060    -0.5130 ca         1 52E       0.019000
     24 C23         -8.4810    -6.1080     0.4610 ca         1 52E      -0.198300
     25 C24         -7.5120    -5.8630     1.4470 ca         1 52E       0.482200
     26 C25         -9.6990    -5.3340    -1.5050 ca         1 52E      -0.133000
     27 C26        -10.3810    -6.5130    -1.5200 ca         1 52E      -0.100000
     28 C27        -10.1330    -7.4980    -0.5640 ca         1 52E      -0.142000
     29 C28         -9.2030    -7.3110     0.4130 ca         1 52E      -0.089000
     30 O29         -0.0660    -0.0040     2.2200 o          1 52E      -0.674100
     31 O32         -4.5690    -1.3650     1.5680 os         1 52E      -0.453900
     32 O33         -5.1620    -3.3490     2.3680 o          1 52E      -0.537000
     33 F35          2.4970     2.3270    -4.1560 f          1 52E      -0.125900
     34 H1          -0.5000    -0.0420    -0.8660 hn         1 52E       0.316500
     35 H2          -6.5410    -1.8200     0.0310 hn         1 52E       0.336500
     36 H3          -4.3770     1.1330     1.5880 hc         1 52E       0.060700
     37 H4          -4.3370     1.1320     3.3570 hc         1 52E       0.060700
     38 H5          -2.2450     2.5070     3.2630 h1         1 52E       0.053700
     39 H6          -4.5210     3.5330     3.4840 h1         1 52E       0.029700
     40 H7          -4.5740     3.7120     1.7250 h1         1 52E       0.029700
     41 H8          -3.7600     5.5810     2.9770 ho         1 52E       0.409000
     42 H9          -1.8370     3.4640     1.1570 ho         1 52E       0.417000
     43 H10          3.2510    -0.0080    -5.0510 ha         1 52E       0.152000
     44 H11          3.1890    -2.1080    -3.7610 ha         1 52E       0.143000
     45 H12          2.3670    -2.1030    -1.4360 ha         1 52E       0.147000
     46 H13          1.8260     0.8850     0.5100 h1         1 52E       0.066200
     47 H14          1.8260    -0.8840     0.5110 h1         1 52E       0.066200
     48 H15         -2.3850     0.8140    -0.7290 h1         1 52E       0.039367
     49 H16         -2.6090    -0.9360    -0.6070 h1         1 52E       0.039367
     50 H17         -3.8100     0.1590     0.0910 h1         1 52E       0.039367
     51 H18         -2.0540     0.1030     3.2560 h1         1 52E       0.111700
     52 H19         -2.8500    -2.1400     2.4480 h1         1 52E       0.063700
     53 H20         -3.9770    -1.3540     3.5620 h1         1 52E       0.063700
     54 H21         -8.0030    -3.2240    -1.2830 ha         1 52E       0.139000
     55 H22         -7.3050    -6.6140     2.1990 h4         1 52E       0.034100
     56 H23         -9.9020    -4.5780    -2.2540 ha         1 52E       0.136000
     57 H24        -11.1260    -6.6890    -2.2860 ha         1 52E       0.131000
     58 H25        -10.6900    -8.4260    -0.6000 ha         1 52E       0.132000
     59 H26         -9.0220    -8.0860     1.1480 ha         1 52E       0.135000
     60 Cl1          1.4720     2.6610    -1.4110 cl         1 52E      -0.073400
     61 C19         -5.3480    -2.4640     1.5560 c          1 52E       0.735100
@<TRIPOS>BOND
     1    33     4 1   
     2     4    12 ar  
     3     4     2 ar  
     4    60     2 1   
     5    12    13 ar  
     6     2    15 ar  
     7    13    14 ar  
     8    15    14 ar  
     9    15    16 1   
    10    16     1 1   
    11    28    27 ar  
    12    28    29 ar  
    13    27    26 ar  
    14     1    17 1   
    15    29    24 ar  
    16    26    23 ar  
    17    24    23 ar  
    18    24    25 ar  
    19    23    22 ar  
    20    18    10 1   
    21    25    11 ar  
    22    22    21 ar  
    23    17    10 1   
    24    17    30 2   
    25    11    21 ar  
    26    21     3 1   
    27    10    19 1   
    28     3    61 1   
    29    31    61 1   
    30    31    20 1   
    31    61    32 2   
    32    19    20 1   
    33    19     5 1   
    34     5     6 1   
    35     9     6 1   
    36     6     7 1   
    37     7     8 1   
    38     1    34 1   
    39     3    35 1   
    40     5    36 1   
    41     5    37 1   
    42     6    38 1   
    43     7    39 1   
    44     7    40 1   
    45     8    41 1   
    46     9    42 1   
    47    12    43 1   
    48    13    44 1   
    49    14    45 1   
    50    16    46 1   
    51    16    47 1   
    52    18    48 1   
    53    18    49 1   
    54    18    50 1   
    55    19    51 1   
    56    20    52 1   
    57    20    53 1   
    58    22    54 1   
    59    25    55 1   
    60    26    56 1   
    61    27    57 1   
    62    28    58 1   
    63    29    59 1   
@<TRIPOS>SUBSTRUCTURE
     1 52E         1 TEMP              0 ****  ****    0 ROOT
