@<TRIPOS>MOLECULE
52F
   25    26     1     0     0
SMALL
bcc


@<TRIPOS>ATOM
      1 C10          0.0000     0.0000     0.0000 ca         1 52F      -0.143000
      2 C13          1.3470     0.0000     2.4260 ca         1 52F      -0.128400
      3 C15          3.3740    -0.0000     3.6210 c          1 52F       0.462200
      4 O01          8.2280     0.0000    -0.3450 o          1 52F      -0.904300
      5 C02          7.5780     0.0000     0.8300 c          1 52F       0.979600
      6 O03          8.2010     0.0000     1.8640 o          1 52F      -0.904300
      7 C04          6.0720     0.0000     0.8570 c3         1 52F      -0.135400
      8 C06          4.0810    -0.0000     2.3360 cc         1 52F       0.354300
      9 N07          3.4120    -0.0000     1.2190 nd         1 52F      -0.435100
     10 C08          2.0660     0.0000     1.2160 ca         1 52F       0.065400
     11 C09          1.3640     0.0000     0.0000 ca         1 52F      -0.031000
     12 C11         -0.7080     0.0000     1.1950 ca         1 52F      -0.075000
     13 C12         -0.0440     0.0000     2.4010 ca         1 52F      -0.152000
     14 N14          2.0230    -0.0000     3.6300 ns         1 52F       0.025900
     15 O16          3.9970    -0.0000     4.6670 o          1 52F      -0.660500
     16 H1          -0.5360     0.0000    -0.9410 ha         1 52F       0.101000
     17 H3           5.7020     0.8850     0.3530 hc         1 52F       0.015700
     18 H4           5.7020    -0.8850     0.3530 hc         1 52F       0.015700
     19 H5           5.9590    -0.8840     2.8120 hc         1 52F       0.047700
     20 H6           5.9590     0.8840     2.8120 hc         1 52F       0.047700
     21 H7           1.9060    -0.0000    -0.9380 ha         1 52F       0.122000
     22 H8          -1.7910     0.0000     1.1770 ha         1 52F       0.094000
     23 H9          -0.6040    -0.0000     3.3290 ha         1 52F       0.103000
     24 H10          1.5200    -0.0000     4.4950 hn         1 52F       0.169500
     25 C05          5.5890    -0.0000     2.3080 c3         1 52F      -0.034700
@<TRIPOS>BOND
     1     1    11 ar  
     2     1    12 ar  
     3     1    16 1   
     4     2    10 ar  
     5     2    13 ar  
     6     2    14 1   
     7     3     8 1   
     8     3    14 1   
     9     3    15 2   
    10     4     5 1   
    11     5     6 1   
    12     5     7 1   
    13     7    17 1   
    14     7    18 1   
    15     7    25 1   
    16     8     9 2   
    17     8    25 1   
    18     9    10 1   
    19    10    11 ar  
    20    11    21 1   
    21    12    13 ar  
    22    12    22 1   
    23    13    23 1   
    24    14    24 1   
    25    19    25 1   
    26    20    25 1   
@<TRIPOS>SUBSTRUCTURE
     1 52F         1 TEMP              0 ****  ****    0 ROOT
