@<TRIPOS>MOLECULE
molecule
   25    26     1     0     0
SMALL
bcc


@<TRIPOS>ATOM
      1 C10          0.0000     0.0000     0.0000 ca         1 52F      -0.169000
      2 C13          1.3470     0.0000     2.4260 ca         1 52F       0.027600
      3 C15          3.3740    -0.0000     3.6210 c          1 52F       0.550200
      4 O01          8.2280     0.0000    -0.3450 o          1 52F      -0.854800
      5 C02          7.5780     0.0000     0.8300 c          1 52F       0.888600
      6 O03          8.2010     0.0000     1.8640 o          1 52F      -0.854800
      7 C04          6.0720     0.0000     0.8570 c3         1 52F      -0.177400
      8 C06          4.0810    -0.0000     2.3360 cc         1 52F       0.417300
      9 N07          3.4120    -0.0000     1.2190 nd         1 52F      -0.548100
     10 C08          2.0660     0.0000     1.2160 ca         1 52F       0.100400
     11 C09          1.3640     0.0000     0.0000 ca         1 52F      -0.056000
     12 C11         -0.7080     0.0000     1.1950 ca         1 52F      -0.102000
     13 C12         -0.0440     0.0000     2.4010 ca         1 52F      -0.181000
     14 N14          2.0230    -0.0000     3.6300 ns         1 52F      -0.433100
     15 O16          3.9970    -0.0000     4.6670 o          1 52F      -0.620500
     16 H1          -0.5360     0.0000    -0.9410 ha         1 52F       0.127000
     17 H3           5.7020     0.8850     0.3530 hc         1 52F       0.040700
     18 H4           5.7020    -0.8850     0.3530 hc         1 52F       0.040700
     19 H5           5.9590    -0.8840     2.8120 hc         1 52F       0.080700
     20 H6           5.9590     0.8840     2.8120 hc         1 52F       0.080700
     21 H7           1.9060    -0.0000    -0.9380 ha         1 52F       0.156000
     22 H8          -1.7910     0.0000     1.1770 ha         1 52F       0.122000
     23 H9          -0.6040    -0.0000     3.3290 ha         1 52F       0.125000
     24 H10          1.5200    -0.0000     4.4950 hn         1 52F       0.328500
     25 C05          5.5890    -0.0000     2.3080 c3         1 52F      -0.087700
@<TRIPOS>BOND
     1     1    12 ar
     2     1    11 ar
     3    12    13 ar
     4    11    10 ar
     5    13     2 ar
     6    10     2 ar
     7    10     9 1
     8     2    14 1
     9     9     8 2
    10    14     3 1
    11     8     3 1
    12     8    25 1
    13     3    15 2
    14     7    25 1
    15     7     5 1
    16     5     6 1
    17     5     4 1
    18     1    16 1
    19     7    17 1
    20     7    18 1
    21    25    19 1
    22    25    20 1
    23    11    21 1
    24    12    22 1
    25    13    23 1
    26    14    24 1
@<TRIPOS>SUBSTRUCTURE
     1 52F         1 TEMP              0 ****  ****    0 ROOT
