@<TRIPOS>MOLECULE
52H
   55    57     1     0     0
SMALL
bcc


@<TRIPOS>ATOM
      1 C4           0.0000     0.0000     0.0000 ca         1 52H       0.280800
      2 C5           1.4050     0.0000     0.0000 ca         1 52H      -0.247200
      3 C6           2.0690     0.0000     1.2390 ca         1 52H       0.592200
      4 C8           0.7600    -0.0090    -2.0710 cc         1 52H       0.226700
      5 N1           1.3380     0.0000     2.3480 nb         1 52H      -0.745000
      6 N3          -0.6460     0.0010     1.1610 nb         1 52H      -0.673000
      7 CBB          2.0540     0.4570    -6.5500 c3         1 52H      -0.075000
      8 CAB          2.1200    -0.1240    -5.1360 c3         1 52H      -0.001100
      9 CAC          1.0040     1.5690    -6.5950 c3         1 52H      -0.001100
     10 CAX          1.6700    -0.6480    -7.5370 c3         1 52H       0.132100
     11 OAH          2.5890    -1.7360    -7.4140 oh         1 52H      -0.547800
     12 CAT          0.2750    -1.1310    -7.2330 c          1 52H       0.612100
     13 OAE          0.1110    -2.1740    -6.6370 o          1 52H      -0.549100
     14 NAQ         -0.7900    -0.4040    -7.6230 ns         1 52H      -0.366300
     15 SBE         -2.3220    -0.9960    -7.4080 s6         1 52H       1.363100
     16 OAF         -3.2100     0.0060    -7.8840 o          1 52H      -0.587300
     17 OAG         -2.3110    -2.3270    -7.9080 o          1 52H      -0.587300
     18 O5'         -2.5560    -1.1030    -5.9080 os         1 52H      -0.429500
     19 C4'         -3.0110    -0.0740    -3.7700 c3         1 52H       0.153100
     20 O4'         -1.8000    -0.5540    -3.1630 os         1 52H      -0.387600
     21 C3'         -3.3680     1.2610    -3.0850 c3         1 52H       0.127100
     22 O3'         -4.6570     1.1790    -2.4740 oh         1 52H      -0.545800
     23 C2'         -2.2690     1.4420    -2.0090 c3         1 52H       0.127100
     24 O2'         -2.8250     1.9420    -0.7920 oh         1 52H      -0.533800
     25 C1'         -1.7530    -0.0080    -1.8260 c3         1 52H       0.157800
     26 N9          -0.3790    -0.0060    -1.3190 na         1 52H       0.205000
     27 N7           1.8040     0.0000    -1.2950 nd         1 52H      -0.494100
     28 C2           0.0180    -0.0000     2.2990 ca         1 52H       0.691900
     29 N6           3.4510    -0.0000     1.3010 nv         1 52H      -0.482500
     30 H8           0.7900    -0.0200    -3.1530 h5         1 52H       0.051800
     31 HAA          4.1750     0.2600    -6.8300 hc         1 52H       0.012922
     32 HAAA         3.3920     1.3760    -7.9570 hc         1 52H       0.012922
     33 HAAB         3.6590     1.8580    -6.2760 hc         1 52H       0.012922
     34 HAB          1.1910    -0.6340    -4.9110 hc         1 52H       0.012922
     35 HABA         2.2740     0.6780    -4.4230 hc         1 52H       0.012922
     36 HABB         2.9430    -0.8260    -5.0720 hc         1 52H       0.012922
     37 HAC          0.7830     1.8150    -7.6260 hc         1 52H       0.012922
     38 HACA         0.1000     1.2320    -6.1030 hc         1 52H       0.012922
     39 HACB         1.3860     2.4470    -6.0880 hc         1 52H       0.012922
     40 HAX          1.7050    -0.2580    -8.5470 h1         1 52H       0.009700
     41 HOAH         2.7440    -2.1140    -8.2640 ho         1 52H       0.393000
     42 HNAQ        -0.6530     0.4620    -8.1060 hn         1 52H       0.243500
     43 H5'         -1.9280     0.7970    -5.4100 h1         1 52H       0.017700
     44 H5'A        -3.6660     0.6220    -5.6960 h1         1 52H       0.017700
     45 H4'         -3.8090    -0.7900    -3.6150 h1         1 52H       0.059700
     46 H3'         -3.3310     2.0730    -3.8000 h1         1 52H       0.009700
     47 HO3'        -5.2230     1.8360    -2.8450 ho         1 52H       0.392000
     48 H2'         -1.4790     2.0870    -2.3740 h1         1 52H       0.019700
     49 HO2'        -2.7540     2.8820    -0.7770 ho         1 52H       0.389000
     50 H1'         -2.4080    -0.5640    -1.1670 h2         1 52H       0.076700
     51 H2          -0.5390    -0.0000     3.2280 h5         1 52H      -0.004900
     52 HN6          3.9900     0.0190     0.4580 hn         1 52H       0.275800
     53 HN6A         3.9120    -0.0170     2.1900 hn         1 52H       0.275800
     54 C5'         -2.7880     0.1530    -5.2660 c3         1 52H       0.243400
     55 CAA          3.4200     1.0290    -6.9310 c3         1 52H      -0.001100
@<TRIPOS>BOND
     1     1     2 ar  
     2     1     6 ar  
     3     1    26 1   
     4     2     3 ar  
     5     2    27 1   
     6     3     5 ar  
     7     3    29 1   
     8     4    26 1   
     9     4    27 2   
    10     4    30 1   
    11     5    28 ar  
    12     6    28 ar  
    13     7     8 1   
    14     7     9 1   
    15     7    10 1   
    16     7    55 1   
    17     8    34 1   
    18     8    35 1   
    19     8    36 1   
    20     9    37 1   
    21     9    38 1   
    22     9    39 1   
    23    10    11 1   
    24    10    12 1   
    25    10    40 1   
    26    11    41 1   
    27    12    13 2   
    28    12    14 1   
    29    14    15 1   
    30    14    42 1   
    31    15    16 2   
    32    15    17 2   
    33    15    18 1   
    34    18    54 1   
    35    19    20 1   
    36    19    21 1   
    37    19    45 1   
    38    19    54 1   
    39    20    25 1   
    40    21    22 1   
    41    21    23 1   
    42    21    46 1   
    43    22    47 1   
    44    23    24 1   
    45    23    25 1   
    46    23    48 1   
    47    24    49 1   
    48    25    26 1   
    49    25    50 1   
    50    28    51 1   
    51    29    52 1   
    52    29    53 1   
    53    31    55 1   
    54    32    55 1   
    55    33    55 1   
    56    43    54 1   
    57    44    54 1   
@<TRIPOS>SUBSTRUCTURE
     1 52H         1 TEMP              0 ****  ****    0 ROOT
