@<TRIPOS>MOLECULE
molecule
   55    57     1     0     0
SMALL
bcc


@<TRIPOS>ATOM
      1 C4           0.0000     0.0000     0.0000 ca         1 52H       0.484800
      2 C5           1.4050     0.0000     0.0000 ca         1 52H      -0.214200
      3 C6           2.0690     0.0000     1.2390 ca         1 52H       0.789200
      4 C8           0.7600    -0.0090    -2.0710 cc         1 52H       0.418700
      5 N1           1.3380     0.0000     2.3480 nb         1 52H      -0.837000
      6 N3          -0.6460     0.0010     1.1610 nb         1 52H      -0.785000
      7 CBB          2.0540     0.4570    -6.5500 c3         1 52H      -0.065000
      8 CAB          2.1200    -0.1240    -5.1360 c3         1 52H      -0.086767
      9 CAC          1.0040     1.5690    -6.5950 c3         1 52H      -0.086767
     10 CAX          1.6700    -0.6480    -7.5370 c3         1 52H       0.089100
     11 OAH          2.5890    -1.7360    -7.4140 oh         1 52H      -0.564800
     12 CAT          0.2750    -1.1310    -7.2330 c          1 52H       0.646100
     13 OAE          0.1110    -2.1740    -6.6370 o          1 52H      -0.515100
     14 NAQ         -0.7900    -0.4040    -7.6230 ns         1 52H      -0.688300
     15 SBE         -2.3220    -0.9960    -7.4080 s6         1 52H       1.655100
     16 OAF         -3.2100     0.0060    -7.8840 o          1 52H      -0.631800
     17 OAG         -2.3110    -2.3270    -7.9080 o          1 52H      -0.631800
     18 O5'         -2.5560    -1.1030    -5.9080 os         1 52H      -0.527500
     19 C4'         -3.0110    -0.0740    -3.7700 c3         1 52H       0.131100
     20 O4'         -1.8000    -0.5540    -3.1630 os         1 52H      -0.399600
     21 C3'         -3.3680     1.2610    -3.0850 c3         1 52H       0.082100
     22 O3'         -4.6570     1.1790    -2.4740 oh         1 52H      -0.564800
     23 C2'         -2.2690     1.4420    -2.0090 c3         1 52H       0.092100
     24 O2'         -2.8250     1.9420    -0.7920 oh         1 52H      -0.552800
     25 C1'         -1.7530    -0.0080    -1.8260 c3         1 52H       0.266800
     26 N9          -0.3790    -0.0060    -1.3190 na         1 52H      -0.254000
     27 N7           1.8040     0.0000    -1.2950 nd         1 52H      -0.587100
     28 C2           0.0180    -0.0000     2.2990 ca         1 52H       0.742900
     29 N6           3.4510    -0.0000     1.3010 nv         1 52H      -0.984500
     30 H8           0.7900    -0.0200    -3.1530 h5         1 52H       0.090800
     31 HAA          4.1750     0.2600    -6.8300 hc         1 52H       0.043033
     32 HAAA         3.3920     1.3760    -7.9570 hc         1 52H       0.043033
     33 HAAB         3.6590     1.8580    -6.2760 hc         1 52H       0.043033
     34 HAB          1.1910    -0.6340    -4.9110 hc         1 52H       0.043033
     35 HABA         2.2740     0.6780    -4.4230 hc         1 52H       0.043033
     36 HABB         2.9430    -0.8260    -5.0720 hc         1 52H       0.043033
     37 HAC          0.7830     1.8150    -7.6260 hc         1 52H       0.043033
     38 HACA         0.1000     1.2320    -6.1030 hc         1 52H       0.043033
     39 HACB         1.3860     2.4470    -6.0880 hc         1 52H       0.043033
     40 HAX          1.7050    -0.2580    -8.5470 h1         1 52H       0.044700
     41 HOAH         2.7440    -2.1140    -8.2640 ho         1 52H       0.410000
     42 HNAQ        -0.6530     0.4620    -8.1060 hn         1 52H       0.345500
     43 H5'         -1.9280     0.7970    -5.4100 h1         1 52H       0.063700
     44 H5'A        -3.6660     0.6220    -5.6960 h1         1 52H       0.063700
     45 H4'         -3.8090    -0.7900    -3.6150 h1         1 52H       0.101700
     46 H3'         -3.3310     2.0730    -3.8000 h1         1 52H       0.044700
     47 HO3'        -5.2230     1.8360    -2.8450 ho         1 52H       0.409000
     48 H2'         -1.4790     2.0870    -2.3740 h1         1 52H       0.056700
     49 HO2'        -2.7540     2.8820    -0.7770 ho         1 52H       0.406000
     50 H1'         -2.4080    -0.5640    -1.1670 h2         1 52H       0.120700
     51 H2          -0.5390    -0.0000     3.2280 h5         1 52H       0.063100
     52 HN6          3.9900     0.0190     0.4580 hn         1 52H       0.450300
     53 HN6A         3.9120    -0.0170     2.1900 hn         1 52H       0.450300
     54 C5'         -2.7880     0.1530    -5.2660 c3         1 52H       0.158400
     55 CAA          3.4200     1.0290    -6.9310 c3         1 52H      -0.086767
@<TRIPOS>BOND
     1     1     2 ar
     2     1     6 ar
     3     1    26 1
     4     2     3 ar
     5     2    27 1
     6     3     5 ar
     7     3    29 1
     8     4    26 1
     9     4    27 2
    10     5    28 ar
    11     6    28 ar
    12    55     7 1
    13     7     8 1
    14     7     9 1
    15     7    10 1
    16    10    11 1
    17    10    12 1
    18    12    13 2
    19    12    14 1
    20    14    15 1
    21    15    16 2
    22    15    17 2
    23    15    18 1
    24    18    54 1
    25    54    19 1
    26    19    20 1
    27    19    21 1
    28    20    25 1
    29    21    22 1
    30    21    23 1
    31    23    24 1
    32    23    25 1
    33    25    26 1
    34     4    30 1
    35    55    31 1
    36    55    32 1
    37    55    33 1
    38     8    34 1
    39     8    35 1
    40     8    36 1
    41     9    37 1
    42     9    38 1
    43     9    39 1
    44    10    40 1
    45    11    41 1
    46    14    42 1
    47    54    43 1
    48    54    44 1
    49    19    45 1
    50    21    46 1
    51    22    47 1
    52    23    48 1
    53    24    49 1
    54    25    50 1
    55    28    51 1
    56    29    52 1
    57    29    53 1
@<TRIPOS>SUBSTRUCTURE
     1 52H         1 TEMP              0 ****  ****    0 ROOT
