@<TRIPOS>MOLECULE
52I
   69    74     1     0     0
SMALL
bcc


@<TRIPOS>ATOM
      1 C10          0.0000     0.0000     0.0000 c2         1 52I      -0.023000
      2 C12         -1.0150     1.2650    -1.7370 c3         1 52I       0.055000
      3 C02          1.4630     2.1280     4.8630 c2         1 52I       0.030000
      4 C03          2.4220     1.4200     4.1340 c2         1 52I      -0.287000
      5 C04          2.1660    -0.0010     3.7010 c3         1 52I       0.019000
      6 C05          1.3990    -0.0010     2.4040 c2         1 52I      -0.013000
      7 C06          2.0840     0.0000     1.2000 c2         1 52I      -0.235000
      8 C07          1.3910     0.0000     0.0000 c2         1 52I       0.124000
      9 O08          2.0710     0.0000    -1.1780 os         1 52I      -0.174000
     10 C09          3.4970    -0.0000    -1.1040 c3         1 52I       0.050000
     11 O11         -0.6830    -0.0050    -1.1740 os         1 52I      -0.190000
     12 C13         -0.6940    -0.0000     1.2190 c3         1 52I       0.026000
     13 C31          0.0220    -0.0000     2.4230 c2         1 52I      -0.200000
     14 C32          3.6090     2.0520     3.8180 c2         1 52I       0.031000
     15 N33          3.8030     3.3020     4.2140 n2         1 52I      -0.165000
     16 C34          2.8760     3.9500     4.9040 c2         1 52I       0.037000
     17 N35          3.1170     5.2540     5.2970 nv         1 52I      -0.032000
     18 N36          1.7230     3.3820     5.2220 n2         1 52I      -0.181000
     19 C14         -2.1630     0.0010     1.2340 c2         1 52I       0.035000
     20 C16         -4.2890     0.0000     2.4240 c3         1 52I       0.379000
     21 N17         -4.9510     0.0000     3.5980 n3         1 52I       0.020000
     22 N18         -4.2420    -0.0000     4.8090 n2         1 52I      -0.103000
     23 C19         -4.7380    -0.5960     5.8500 c2         1 52I      -0.026000
     24 C25         -6.0600    -1.2450     5.7630 ca         1 52I      -0.105000
     25 C26         -6.4990    -2.1090     6.7660 ca         1 52I      -0.061000
     26 C27         -7.7350    -2.7130     6.6540 ca         1 52I      -0.104000
     27 C28         -8.5390    -2.4570     5.5560 ca         1 52I      -0.077000
     28 C29         -8.1170    -1.5850     4.5670 ca         1 52I      -0.087000
     29 C24         -6.8870    -0.9730     4.6690 ca         1 52I      -0.072000
     30 C20         -6.4190     0.0070     3.6170 c3         1 52I      -0.023000
     31 C21         -6.9280     1.4090     3.9590 c3         1 52I      -0.122000
     32 C15         -2.8270     0.0000     2.4090 c2         1 52I      -0.106000
     33 C22         -6.5760     2.3710     2.8220 c3         1 52I      -0.092000
     34 C23         -7.3570     1.9800     1.5650 c3         1 52I      -0.122500
     35 C37         -6.9450     3.7980     3.2300 c3         1 52I      -0.122500
     36 H1          -2.0840     1.3190    -1.9020 h1         1 52I       0.031667
     37 H2          -0.4970     1.3890    -2.6800 h1         1 52I       0.031667
     38 H3          -0.7150     2.0520    -1.0550 h1         1 52I       0.031667
     39 H4           0.1130     0.5610     5.0210 hn         1 52I       0.077000
     40 H5          -0.4380     2.0610     5.6900 hn         1 52I       0.077000
     41 H6           3.1120    -0.5110     3.5620 hc         1 52I       0.061000
     42 H7           1.5890    -0.5120     4.4620 hc         1 52I       0.061000
     43 H8           3.1670    -0.0000     1.1960 ha         1 52I       0.128000
     44 H9           3.9110    -0.0280    -2.1050 h1         1 52I       0.038000
     45 H10          3.8300    -0.8710    -0.5510 h1         1 52I       0.038000
     46 H11          3.8330     0.8980    -0.5990 h1         1 52I       0.038000
     47 H12         -0.5070    -0.0000     3.3680 ha         1 52I       0.129000
     48 H13          4.3730     1.5310     3.2540 h4         1 52I       0.116000
     49 H14          2.9910     6.0040     4.6470 hn         1 52I       0.073500
     50 H15          3.4230     5.4470     6.2310 hn         1 52I       0.073500
     51 H16         -1.5490     0.8750     1.4130 DU         1 52I       0.082000
     52 H19         -4.1480    -0.6890     6.7540 h4         1 52I       0.128000
     53 H20         -5.8710    -2.3100     7.6250 ha         1 52I       0.108000
     54 H21         -8.0740    -3.3960     7.4230 ha         1 52I       0.108000
     55 H22         -9.5080    -2.9340     5.4750 ha         1 52I       0.106000
     56 H23         -8.7510    -1.3890     3.7110 ha         1 52I       0.114000
     57 H24         -6.7960    -0.2960     2.6480 h1         1 52I       0.126000
     58 H25         -6.4620     1.7490     4.8760 hc         1 52I       0.067000
     59 H26         -8.0030     1.3820     4.0890 hc         1 52I       0.067000
     60 H27         -3.4400     0.8750     2.2300 DU         1 52I       0.024000
     61 H28         -5.5130     2.3160     2.6190 hc         1 52I       0.065000
     62 H29         -7.2120     2.7350     0.8010 hc         1 52I       0.047833
     63 H30         -7.0010     1.0240     1.2010 hc         1 52I       0.047833
     64 H31         -8.4110     1.9060     1.8040 hc         1 52I       0.047833
     65 H32         -6.6900     4.4800     2.4270 hc         1 52I       0.047833
     66 H33         -8.0090     3.8540     3.4270 hc         1 52I       0.047833
     67 H34         -6.3980     4.0720     4.1230 hc         1 52I       0.047833
     68 N01          0.2580     1.5350     5.2010 nv         1 52I       0.072000
     69 O30         -4.9080     0.0010     1.3740 o          1 52I      -0.440000
@<TRIPOS>BOND
     1     1     8 1   
     2     1    11 1   
     3     1    12 1   
     4     2    11 1   
     5     2    36 1   
     6     2    37 1   
     7     2    38 1   
     8     3     4 1   
     9     3    18 1   
    10     3    68 1   
    11     4     5 1   
    12     4    14 1   
    13     5     6 1   
    14     5    41 1   
    15     5    42 1   
    16     6     7 1   
    17     6    13 1   
    18     7     8 1   
    19     7    43 1   
    20     8     9 1   
    21     9    10 1   
    22    10    44 1   
    23    10    45 1   
    24    10    46 1   
    25    12    13 1   
    26    12    19 1   
    27    12    51 1   
    28    13    47 1   
    29    14    15 1   
    30    14    48 1   
    31    15    16 1   
    32    16    17 1   
    33    16    18 1   
    34    17    49 1   
    35    17    50 1   
    36    19    32 1   
    37    19    51 1   
    38    20    21 1   
    39    20    32 1   
    40    20    60 1   
    41    20    69 1   
    42    21    22 1   
    43    21    30 1   
    44    22    23 1   
    45    23    24 1   
    46    23    52 1   
    47    24    25 1   
    48    24    29 1   
    49    25    26 1   
    50    25    53 1   
    51    26    27 1   
    52    26    54 1   
    53    27    28 1   
    54    27    55 1   
    55    28    29 1   
    56    28    56 1   
    57    29    30 1   
    58    30    31 1   
    59    30    57 1   
    60    31    33 1   
    61    31    58 1   
    62    31    59 1   
    63    32    60 1   
    64    33    34 1   
    65    33    35 1   
    66    33    61 1   
    67    34    62 1   
    68    34    63 1   
    69    34    64 1   
    70    35    65 1   
    71    35    66 1   
    72    35    67 1   
    73    39    68 1   
    74    40    68 1   
@<TRIPOS>SUBSTRUCTURE
     1 52I         1 TEMP              0 ****  ****    0 ROOT
