@<TRIPOS>MOLECULE
molecule
   69    72     1     0     0
SMALL
bcc


@<TRIPOS>ATOM
      1 C10          0.0000     0.0000     0.0000 ca         1 52I       0.101100
      2 C12         -1.0150     1.2650    -1.7370 c3         1 52I       0.133700
      3 C02          1.4630     2.1280     4.8630 ca         1 52I       0.747200
      4 C03          2.4220     1.4200     4.1340 ca         1 52I      -0.415900
      5 C04          2.1660    -0.0010     3.7010 c3         1 52I       0.029200
      6 C05          1.3990    -0.0010     2.4040 ca         1 52I      -0.052300
      7 C06          2.0840     0.0000     1.2000 ca         1 52I      -0.199000
      8 C07          1.3910     0.0000     0.0000 ca         1 52I       0.127100
      9 O08          2.0710     0.0000    -1.1780 os         1 52I      -0.313900
     10 C09          3.4970    -0.0000    -1.1040 c3         1 52I       0.125700
     11 O11         -0.6830    -0.0050    -1.1740 os         1 52I      -0.337900
     12 C13         -0.6940    -0.0000     1.2190 ca         1 52I      -0.055800
     13 C31          0.0220    -0.0000     2.4230 ca         1 52I      -0.140000
     14 C32          3.6090     2.0520     3.8180 ca         1 52I       0.501200
     15 N33          3.8030     3.3020     4.2140 nb         1 52I      -0.790000
     16 C34          2.8760     3.9500     4.9040 ca         1 52I       0.969900
     17 N35          3.1170     5.2540     5.2970 nv         1 52I      -1.059500
     18 N36          1.7230     3.3820     5.2220 nb         1 52I      -0.820000
     19 C14         -2.1630     0.0010     1.2340 ce         1 52I      -0.024200
     20 C16         -4.2890     0.0000     2.4240 c          1 52I       0.699300
     21 N17         -4.9510     0.0000     3.5980 n          1 52I      -0.249800
     22 N18         -4.2420    -0.0000     4.8090 n2         1 52I      -0.451300
     23 C19         -4.7380    -0.5960     5.8500 ce         1 52I       0.419800
     24 C25         -6.0600    -1.2450     5.7630 ca         1 52I      -0.181900
     25 C26         -6.4990    -2.1090     6.7660 ca         1 52I      -0.097000
     26 C27         -7.7350    -2.7130     6.6540 ca         1 52I      -0.131000
     27 C28         -8.5390    -2.4570     5.5560 ca         1 52I      -0.109000
     28 C29         -8.1170    -1.5850     4.5670 ca         1 52I      -0.118000
     29 C24         -6.8870    -0.9730     4.6690 ca         1 52I      -0.074300
     30 C20         -6.4190     0.0070     3.6170 c3         1 52I       0.139000
     31 C21         -6.9280     1.4090     3.9590 c3         1 52I      -0.085400
     32 C15         -2.8270     0.0000     2.4090 cf         1 52I      -0.235200
     33 C22         -6.5760     2.3710     2.8220 c3         1 52I      -0.074700
     34 C23         -7.3570     1.9800     1.5650 c3         1 52I      -0.091600
     35 C37         -6.9450     3.7980     3.2300 c3         1 52I      -0.091600
     36 H1          -0.8620     2.0400    -0.9950 h1         1 52I       0.038700
     37 H2          -0.3820     1.4570    -2.5950 h1         1 52I       0.038700
     38 H3          -2.0530     1.2630    -2.0470 h1         1 52I       0.038700
     39 H4          -0.4320     2.0560     5.7040 hn         1 52I       0.444800
     40 H5           0.0960     0.5720     4.9810 hn         1 52I       0.444800
     41 H6           3.1120    -0.5110     3.5620 hc         1 52I       0.052700
     42 H7           1.5890    -0.5120     4.4620 hc         1 52I       0.052700
     43 H8           3.1670    -0.0000     1.1960 ha         1 52I       0.139000
     44 H9           3.8300    -0.8720    -0.5530 h1         1 52I       0.042367
     45 H10          3.8330     0.8970    -0.5980 h1         1 52I       0.042367
     46 H11          3.9110    -0.0260    -2.1050 h1         1 52I       0.042367
     47 H12         -0.5070    -0.0000     3.3680 ha         1 52I       0.134000
     48 H13          4.3730     1.5310     3.2540 h4         1 52I       0.023100
     49 H14          2.9560     6.0070     4.6590 hn         1 52I       0.444300
     50 H15          3.4430     5.4450     6.2240 hn         1 52I       0.444300
     51 H16         -2.7140     0.0010     0.3010 ha         1 52I       0.166000
     52 H19         -4.2210    -0.5470     6.8010 h4         1 52I       0.047800
     53 H20         -5.8710    -2.3100     7.6250 ha         1 52I       0.134000
     54 H21         -8.0740    -3.3960     7.4230 ha         1 52I       0.135000
     55 H22         -9.5080    -2.9340     5.4750 ha         1 52I       0.135000
     56 H23         -8.7510    -1.3890     3.7110 ha         1 52I       0.140000
     57 H24         -6.7960    -0.2960     2.6480 h1         1 52I       0.106700
     58 H25         -8.0030     1.3820     4.0890 hc         1 52I       0.052200
     59 H26         -6.4620     1.7490     4.8760 hc         1 52I       0.052200
     60 H27         -2.2760    -0.0010     3.3420 ha         1 52I       0.144000
     61 H28         -5.5130     2.3160     2.6190 hc         1 52I       0.060700
     62 H29         -7.2120     2.7350     0.8010 hc         1 52I       0.036367
     63 H30         -8.4110     1.9060     1.8040 hc         1 52I       0.036367
     64 H31         -7.0010     1.0240     1.2010 hc         1 52I       0.036367
     65 H32         -6.4030     4.0690     4.1280 hc         1 52I       0.036367
     66 H33         -8.0100     3.8560     3.4190 hc         1 52I       0.036367
     67 H34         -6.6830     4.4810     2.4300 hc         1 52I       0.036367
     68 N01          0.2580     1.5350     5.2010 nv         1 52I      -1.002500
     69 O30         -4.9080     0.0010     1.3740 o          1 52I      -0.610100
@<TRIPOS>BOND
     1    27    28 ar
     2    27    26 ar
     3    28    29 ar
     4    26    25 ar
     5    69    20 2
     6    29    30 1
     7    29    24 ar
     8    11     2 1
     9    11     1 1
    10    30    21 1
    11    30    31 1
    12    33    34 1
    13    33    35 1
    14    33    31 1
    15    20    21 1
    16    20    32 1
    17    25    24 ar
    18    19    32 2
    19    19    12 1
    20    21    22 1
    21    24    23 1
    22     1    12 ar
    23     1     8 ar
    24     9     8 1
    25     9    10 1
    26    12    13 ar
    27    22    23 2
    28     8     7 ar
    29    15    14 ar
    30    15    16 ar
    31    13     6 ar
    32    14     4 ar
    33     7     6 ar
    34    17    16 1
    35     6     5 1
    36    16    18 ar
    37     4     5 1
    38     4     3 ar
    39    18     3 ar
    40     3    68 1
    41     2    36 1
    42     2    37 1
    43     2    38 1
    44    68    39 1
    45    68    40 1
    46     5    41 1
    47     5    42 1
    48     7    43 1
    49    10    44 1
    50    10    45 1
    51    10    46 1
    52    13    47 1
    53    14    48 1
    54    17    49 1
    55    17    50 1
    56    19    51 1
    57    23    52 1
    58    25    53 1
    59    26    54 1
    60    27    55 1
    61    28    56 1
    62    30    57 1
    63    31    58 1
    64    31    59 1
    65    32    60 1
    66    33    61 1
    67    34    62 1
    68    34    63 1
    69    34    64 1
    70    35    65 1
    71    35    66 1
    72    35    67 1
@<TRIPOS>SUBSTRUCTURE
     1 52I         1 TEMP              0 ****  ****    0 ROOT
