@<TRIPOS>MOLECULE
molecule
   69    72     1     0     0
SMALL
bcc


@<TRIPOS>ATOM
      1 N01          0.0000     0.0000     0.0000 nv         1 52J      -1.020500
      2 C02          1.3850     0.0000     0.0000 ca         1 52J       0.772200
      3 C03          2.0940     0.0000     1.2030 ca         1 52J      -0.447900
      4 C04          1.3680    -0.0000     2.5250 c3         1 52J       0.039200
      5 C05          1.0180    -1.4150     2.9060 ca         1 52J      -0.048300
      6 C06         -0.1900    -1.9600     2.4980 ca         1 52J      -0.201000
      7 C07         -0.5240    -3.2600     2.8420 ca         1 52J       0.123100
      8 O08         -1.7110    -3.7850     2.4380 os         1 52J      -0.313900
      9 C09         -2.5650    -2.9420     1.6630 c3         1 52J       0.127700
     10 C10          0.3550    -4.0260     3.6000 ca         1 52J       0.099100
     11 O11          0.0310    -5.3010     3.9380 os         1 52J      -0.337900
     12 C12          0.4270    -6.3320     3.0330 c3         1 52J       0.132700
     13 C13          1.5770    -3.4760     4.0120 ca         1 52J      -0.057800
     14 O30          4.3400    -5.6820     6.3120 o          1 52J      -0.611100
     15 C31          1.9020    -2.1630     3.6520 ca         1 52J      -0.135000
     16 C32          3.4730    -0.0010     1.1560 ca         1 52J       0.530200
     17 N33          4.0810    -0.0010    -0.0210 nb         1 52J      -0.830000
     18 C34          3.3840    -0.0010    -1.1480 ca         1 52J       0.974900
     19 N35          4.0560    -0.0010    -2.3580 nv         1 52J      -0.989500
     20 N36          2.0580    -0.0060    -1.1450 nb         1 52J      -0.860000
     21 C14          2.5150    -4.2760     4.8130 ce         1 52J      -0.027200
     22 C15          3.6910    -3.7430     5.2080 cf         1 52J      -0.234200
     23 C16          4.6230    -4.5370     6.0040 c          1 52J       0.698300
     24 N17          5.7970    -4.0050     6.3970 n          1 52J      -0.249800
     25 N18          6.1260    -2.6860     6.0510 n2         1 52J      -0.444300
     26 C19          6.8520    -1.9660     6.8510 ce         1 52J       0.417800
     27 C20          6.7370    -4.8010     7.1980 c3         1 52J       0.137000
     28 C21          7.8780    -5.2950     6.3080 c3         1 52J      -0.085400
     29 C22          7.3250    -6.2610     5.2590 c3         1 52J      -0.074700
     30 C23          8.4420    -6.6590     4.2920 c3         1 52J      -0.088100
     31 C24          7.2930    -3.9290     8.2970 ca         1 52J      -0.074300
     32 C25          7.3530    -2.5480     8.1080 ca         1 52J      -0.179900
     33 C26          7.8850    -1.7340     9.1100 ca         1 52J      -0.098000
     34 C27          8.3330    -2.3020    10.2840 ca         1 52J      -0.131000
     35 C28          8.2550    -3.6710    10.4710 ca         1 52J      -0.110000
     36 C29          7.7410    -4.4810     9.4760 ca         1 52J      -0.119000
     37 C37          6.7820    -7.5120     5.9520 c3         1 52J      -0.088100
     38 H1          -0.5000     0.4560     0.7370 hn         1 52J       0.440800
     39 H2          -0.5000    -0.4150    -0.7610 hn         1 52J       0.440800
     40 H3           2.0050     0.4320     3.2870 hc         1 52J       0.048200
     41 H4           0.4610     0.5850     2.4380 hc         1 52J       0.048200
     42 H5          -0.8700    -1.3700     1.8960 ha         1 52J       0.136000
     43 H6          -3.4990    -3.4540     1.4700 h1         1 52J       0.040033
     44 H7          -2.0810    -2.7050     0.7230 h1         1 52J       0.040033
     45 H8          -2.7610    -2.0270     2.2090 h1         1 52J       0.040033
     46 H9           1.3280    -6.0310     2.5130 h1         1 52J       0.037700
     47 H10          0.6170    -7.2440     3.5860 h1         1 52J       0.037700
     48 H11         -0.3650    -6.5050     2.3140 h1         1 52J       0.037700
     49 H12          2.8450    -1.7320     3.9670 ha         1 52J       0.142000
     50 H13          4.0530    -0.0000     2.0710 h4         1 52J       0.027100
     51 H14          5.0560    -0.0020    -2.3740 hn         1 52J       0.449300
     52 H15          3.5410    -0.0010    -3.2160 hn         1 52J       0.449300
     53 H16          2.2620    -5.2940     5.0860 ha         1 52J       0.165000
     54 H17          3.9430    -2.7250     4.9340 ha         1 52J       0.149000
     55 H19          7.1580    -0.9700     6.5560 h4         1 52J       0.049800
     56 H21          6.2160    -5.6460     7.6340 h1         1 52J       0.106700
     57 H22          8.3420    -4.4500     5.8130 hc         1 52J       0.051700
     58 H23          8.6150    -5.8060     6.9160 hc         1 52J       0.051700
     59 H24          6.5270    -5.7780     4.7090 hc         1 52J       0.061700
     60 H25          8.0730    -7.4080     3.6010 hc         1 52J       0.035200
     61 H26          9.2770    -7.0640     4.8510 hc         1 52J       0.035200
     62 H27          8.7680    -5.7870     3.7380 hc         1 52J       0.035200
     63 H28          7.9470    -0.6630     8.9650 ha         1 52J       0.134000
     64 H29          8.7370    -1.6730    11.0680 ha         1 52J       0.134000
     65 H30          8.6080    -4.1110    11.3960 ha         1 52J       0.135000
     66 H31          7.6820    -5.5520     9.6270 ha         1 52J       0.138000
     67 H32          6.1290    -8.0470     5.2730 hc         1 52J       0.035200
     68 H33          7.6070    -8.1530     6.2390 hc         1 52J       0.035200
     69 H34          6.2250    -7.2230     6.8360 hc         1 52J       0.035200
@<TRIPOS>BOND
     1     1     2 1
     2    33    34 ar
     3    33    32 ar
     4     2    20 ar
     5     2     3 ar
     6    34    35 ar
     7    20    18 ar
     8     4     3 1
     9     4     5 1
    10    26    32 1
    11    26    25 2
    12    32    31 ar
    13     3    16 ar
    14    35    36 ar
    15    18    19 1
    16    18    17 ar
    17     5    15 ar
    18     5     6 ar
    19    25    24 1
    20    31    36 ar
    21    31    27 1
    22    15    13 ar
    23    16    17 ar
    24     6     7 ar
    25    24    27 1
    26    24    23 1
    27    22    23 1
    28    22    21 2
    29    13    21 1
    30    13    10 ar
    31    27    28 1
    32     7    10 ar
    33     7     8 1
    34    23    14 2
    35     9     8 1
    36    10    11 1
    37    28    29 1
    38    11    12 1
    39    29    37 1
    40    29    30 1
    41     1    38 1
    42     1    39 1
    43     4    40 1
    44     4    41 1
    45     6    42 1
    46     9    43 1
    47     9    44 1
    48     9    45 1
    49    12    46 1
    50    12    47 1
    51    12    48 1
    52    15    49 1
    53    16    50 1
    54    19    51 1
    55    19    52 1
    56    21    53 1
    57    22    54 1
    58    26    55 1
    59    27    56 1
    60    28    57 1
    61    28    58 1
    62    29    59 1
    63    30    60 1
    64    30    61 1
    65    30    62 1
    66    33    63 1
    67    34    64 1
    68    35    65 1
    69    36    66 1
    70    37    67 1
    71    37    68 1
    72    37    69 1
@<TRIPOS>SUBSTRUCTURE
     1 52J         1 TEMP              0 ****  ****    0 ROOT
