@<TRIPOS>MOLECULE
52J
   69    74     1     0     0
SMALL
bcc


@<TRIPOS>ATOM
      1 N01          0.0000     0.0000     0.0000 nv         1 52J       0.005000
      2 C02          1.3850     0.0000     0.0000 c2         1 52J       0.064000
      3 C03          2.0940     0.0000     1.2030 c2         1 52J      -0.300000
      4 C04          1.3680    -0.0000     2.5250 c3         1 52J       0.026000
      5 C05          1.0180    -1.4150     2.9060 c2         1 52J      -0.007000
      6 C06         -0.1900    -1.9600     2.4980 c2         1 52J      -0.244000
      7 C07         -0.5240    -3.2600     2.8420 c2         1 52J       0.120000
      8 O08         -1.7110    -3.7850     2.4380 os         1 52J      -0.175000
      9 C09         -2.5650    -2.9420     1.6630 c3         1 52J       0.052000
     10 C10          0.3550    -4.0260     3.6000 c2         1 52J      -0.027000
     11 O11          0.0310    -5.3010     3.9380 os         1 52J      -0.190000
     12 C12          0.4270    -6.3320     3.0330 c3         1 52J       0.056000
     13 C13          1.5770    -3.4760     4.0120 c3         1 52J       0.025000
     14 O30          4.3400    -5.6820     6.3120 o          1 52J      -0.443000
     15 C31          1.9020    -2.1630     3.6520 c2         1 52J      -0.188000
     16 C32          3.4730    -0.0010     1.1560 c2         1 52J       0.050000
     17 N33          4.0810    -0.0010    -0.0210 n2         1 52J      -0.199000
     18 C34          3.3840    -0.0010    -1.1480 c2         1 52J       0.011000
     19 N35          4.0560    -0.0010    -2.3580 nv         1 52J       0.102000
     20 N36          2.0580    -0.0060    -1.1450 n2         1 52J      -0.212000
     21 C14          2.5150    -4.2760     4.8130 c2         1 52J       0.027000
     22 C15          3.6910    -3.7430     5.2080 c2         1 52J      -0.093000
     23 C16          4.6230    -4.5370     6.0040 c3         1 52J       0.377000
     24 N17          5.7970    -4.0050     6.3970 n3         1 52J       0.018000
     25 N18          6.1260    -2.6860     6.0510 n2         1 52J      -0.096000
     26 C19          6.8520    -1.9660     6.8510 c2         1 52J      -0.028000
     27 C20          6.7370    -4.8010     7.1980 c3         1 52J      -0.024000
     28 C21          7.8780    -5.2950     6.3080 c3         1 52J      -0.121000
     29 C22          7.3250    -6.2610     5.2590 c3         1 52J      -0.093000
     30 C23          8.4420    -6.6590     4.2920 c3         1 52J      -0.118500
     31 C24          7.2930    -3.9290     8.2970 ca         1 52J      -0.073000
     32 C25          7.3530    -2.5480     8.1080 ca         1 52J      -0.103000
     33 C26          7.8850    -1.7340     9.1100 ca         1 52J      -0.061000
     34 C27          8.3330    -2.3020    10.2840 ca         1 52J      -0.104000
     35 C28          8.2550    -3.6710    10.4710 ca         1 52J      -0.079000
     36 C29          7.7410    -4.4810     9.4760 ca         1 52J      -0.088000
     37 C37          6.7820    -7.5120     5.9520 c3         1 52J      -0.118500
     38 H1          -0.4990    -0.6710    -0.5500 hn         1 52J       0.072000
     39 H2          -0.4990     0.7200     0.4840 hn         1 52J       0.072000
     40 H3           0.4610     0.5860     2.4390 hc         1 52J       0.059000
     41 H4           2.0060     0.4310     3.2870 hc         1 52J       0.059000
     42 H5          -0.8830    -1.3610     1.9200 ha         1 52J       0.128000
     43 H6          -3.4890    -3.4630     1.4480 h1         1 52J       0.036000
     44 H7          -2.0710    -2.6840     0.7340 h1         1 52J       0.036000
     45 H8          -2.7810    -2.0380     2.2200 h1         1 52J       0.036000
     46 H9           1.2350    -5.9740     2.4080 h1         1 52J       0.030333
     47 H10         -0.4160    -6.6090     2.4110 h1         1 52J       0.030333
     48 H11          0.7600    -7.1970     3.5940 h1         1 52J       0.030333
     49 H12          2.8450    -1.7320     3.9670 ha         1 52J       0.132000
     50 H13          4.0530    -0.0000     2.0710 h4         1 52J       0.119000
     51 H14          5.0560    -0.0310    -2.3750 hn         1 52J       0.069500
     52 H15          3.5410     0.0100    -3.2160 hn         1 52J       0.069500
     53 H16          2.6200    -4.0920     3.7500 DU         1 52J       0.082000
     54 H17          4.3410    -4.5100     4.8040 DU         1 52J       0.022000
     55 H19          7.1560    -0.9690     6.5570 h4         1 52J       0.130000
     56 H21          6.2160    -5.6460     7.6340 h1         1 52J       0.128000
     57 H22          8.6160    -5.8050     6.9160 hc         1 52J       0.066500
     58 H23          8.3410    -4.4500     5.8120 hc         1 52J       0.066500
     59 H24          6.5270    -5.7780     4.7080 hc         1 52J       0.066000
     60 H25          8.0280    -7.2540     3.4860 hc         1 52J       0.046667
     61 H26          8.9010    -5.7670     3.8830 hc         1 52J       0.046667
     62 H27          9.1890    -7.2390     4.8210 hc         1 52J       0.046667
     63 H28          7.9470    -0.6630     8.9650 ha         1 52J       0.108000
     64 H29          8.7370    -1.6730    11.0680 ha         1 52J       0.107000
     65 H30          8.6080    -4.1110    11.3960 ha         1 52J       0.106000
     66 H31          7.6820    -5.5520     9.6270 ha         1 52J       0.113000
     67 H32          7.6070    -8.1540     6.2390 hc         1 52J       0.046667
     68 H33          6.2260    -7.2230     6.8360 hc         1 52J       0.046667
     69 H34          6.1280    -8.0460     5.2740 hc         1 52J       0.046667
@<TRIPOS>BOND
     1     1     2 1   
     2     1    38 1   
     3     1    39 1   
     4     2     3 1   
     5     2    20 1   
     6     3     4 1   
     7     3    16 1   
     8     4     5 1   
     9     4    40 1   
    10     4    41 1   
    11     5     6 1   
    12     5    15 1   
    13     6     7 1   
    14     6    42 1   
    15     7     8 1   
    16     7    10 1   
    17     8     9 1   
    18     9    43 1   
    19     9    44 1   
    20     9    45 1   
    21    10    11 1   
    22    10    13 1   
    23    11    12 1   
    24    12    46 1   
    25    12    47 1   
    26    12    48 1   
    27    13    15 1   
    28    13    21 1   
    29    13    53 1   
    30    14    23 1   
    31    15    49 1   
    32    16    17 1   
    33    16    50 1   
    34    17    18 1   
    35    18    19 1   
    36    18    20 1   
    37    19    51 1   
    38    19    52 1   
    39    21    22 1   
    40    21    53 1   
    41    22    23 1   
    42    22    54 1   
    43    23    24 1   
    44    23    54 1   
    45    24    25 1   
    46    24    27 1   
    47    25    26 1   
    48    26    32 1   
    49    26    55 1   
    50    27    28 1   
    51    27    31 1   
    52    27    56 1   
    53    28    29 1   
    54    28    57 1   
    55    28    58 1   
    56    29    30 1   
    57    29    37 1   
    58    29    59 1   
    59    30    60 1   
    60    30    61 1   
    61    30    62 1   
    62    31    32 1   
    63    31    36 1   
    64    32    33 1   
    65    33    34 1   
    66    33    63 1   
    67    34    35 1   
    68    34    64 1   
    69    35    36 1   
    70    35    65 1   
    71    36    66 1   
    72    37    67 1   
    73    37    68 1   
    74    37    69 1   
@<TRIPOS>SUBSTRUCTURE
     1 52J         1 TEMP              0 ****  ****    0 ROOT
