@<TRIPOS>MOLECULE
52K
   42    44     1     0     0
SMALL
bcc


@<TRIPOS>ATOM
      1 C1           0.0000     0.0000     0.0000 c3         1 52K       0.182400
      2 C2           1.5300     0.0000     0.0000 c3         1 52K       0.124500
      3 C5          -0.1360    -0.7200     2.2690 c3         1 52K       0.186100
      4 C6           1.3100    -0.3200     2.3820 c2         1 52K       0.107200
      5 C8           2.0390    -1.2470    -0.7260 c3         1 52K       0.009900
      6 C11          1.2780     1.7970    -1.7250 ca         1 52K      -0.123000
      7 C12          3.6990     2.9290    -1.0060 ca         1 52K      -0.041400
      8 C16          5.8130     4.0350    -1.6370 c          1 52K       0.527600
      9 C18          7.1550     4.6380    -1.2250 ca         1 52K       0.304800
     10 C21          8.7040     5.1870     0.4440 ca         1 52K       0.408200
     11 C23          9.5520     5.7170    -0.5150 ca         1 52K      -0.129900
     12 Cl          11.1180     6.4250    -0.0310 cl         1 52K       0.009600
     13 N19          7.5170     4.6540     0.0770 nb         1 52K      -0.583000
     14 C22          9.1910     5.7020    -1.8210 ca         1 52K      -0.066000
     15 C20          8.0000     5.1670    -2.1870 ca         1 52K      -0.141300
     16 O17          5.5160     3.9770    -2.7820 o          1 52K      -0.567100
     17 N15          4.9270     3.4800    -0.6290 ns         1 52K      -0.119100
     18 C10          3.2380     1.7940    -0.3500 ca         1 52K      -0.142000
     19 C14          2.9380     3.4980    -2.0200 ca         1 52K      -0.091000
     20 C13          1.7310     2.9300    -2.3750 ca         1 52K      -0.053000
     21 C9           2.0300     1.2320    -0.7110 ca         1 52K      -0.107300
     22 N4           2.0290     0.0000     1.3720 n2         1 52K      -0.349900
     23 N7           1.8460     0.1100     3.6610 nz         1 52K       0.147400
     24 O3          -0.4530    -1.0140     0.9060 os         1 52K      -0.360600
     25 H1          -0.3490    -0.1360    -1.0170 h1         1 52K       0.047200
     26 H2          -0.3490     0.9560     0.3710 h1         1 52K       0.047200
     27 H3          -0.4000    -1.3190     3.1320 h1         1 52K       0.040700
     28 H4          -0.7450     0.1760     2.2590 h1         1 52K       0.040700
     29 H5           3.1100    -1.3340    -0.5880 hc         1 52K       0.030700
     30 H6           1.5500    -2.1250    -0.3220 hc         1 52K       0.030700
     31 H7           1.8160    -1.1640    -1.7840 hc         1 52K       0.030700
     32 H8           0.3510     1.3300    -2.0330 ha         1 52K       0.112000
     33 H9           8.9930     5.1990     1.4880 h4         1 52K      -0.002900
     34 H10          9.8530     6.1160    -2.5720 ha         1 52K       0.130000
     35 H11          7.7240     5.1240    -3.2330 ha         1 52K       0.138000
     36 H12          5.1800     3.5260     0.3380 hn         1 52K       0.190500
     37 H13          3.8430     1.3310     0.4210 ha         1 52K       0.111000
     38 H14          3.2700     4.4120    -2.4970 ha         1 52K       0.138000
     39 H15          1.1440     3.3670    -3.1740 ha         1 52K       0.118000
     40 H16          1.6220    -0.5690     4.3620 hn         1 52K       0.221800
     41 H17          1.4450     0.9920     3.9110 hn         1 52K       0.221800
     42 H73          2.8400     0.2030     3.5910 hn         1 52K       0.221800
@<TRIPOS>BOND
     1     1     2 1   
     2     1    24 1   
     3     1    25 1   
     4     1    26 1   
     5     2     5 1   
     6     2    21 1   
     7     2    22 1   
     8     3     4 1   
     9     3    24 1   
    10     3    27 1   
    11     3    28 1   
    12     4    22 2   
    13     4    23 1   
    14     5    29 1   
    15     5    30 1   
    16     5    31 1   
    17     6    20 ar  
    18     6    21 ar  
    19     6    32 1   
    20     7    17 1   
    21     7    18 ar  
    22     7    19 ar  
    23     8     9 1   
    24     8    16 2   
    25     8    17 1   
    26     9    13 ar  
    27     9    15 ar  
    28    10    11 ar  
    29    10    13 ar  
    30    10    33 1   
    31    11    12 1   
    32    11    14 ar  
    33    14    15 ar  
    34    14    34 1   
    35    15    35 1   
    36    17    36 1   
    37    18    21 ar  
    38    18    37 1   
    39    19    20 ar  
    40    19    38 1   
    41    20    39 1   
    42    23    40 1   
    43    23    41 1   
    44    23    42 1   
@<TRIPOS>SUBSTRUCTURE
     1 52K         1 TEMP              0 ****  ****    0 ROOT
