@<TRIPOS>MOLECULE
molecule
   30    29     1     0     0
SMALL
bcc


@<TRIPOS>ATOM
      1 N1           0.0000     0.0000     0.0000 n2         1 52L      -0.460200
      2 C4           2.8470    -1.1370     3.3070 c3         1 52L       0.129100
      3 C5           3.1000    -2.5300     3.8880 c3         1 52L       0.117100
      4 C6           3.7600    -2.3980     5.2610 c3         1 52L       0.207400
      5 O30          1.3560    -0.2160    -2.4350 o          1 52L      -0.821800
      6 O29          3.2440    -0.1130    -1.2730 o          1 52L      -0.821800
      7 C1           1.2920     0.0000     0.0000 ce         1 52L       0.367300
      8 O27         -0.7070     0.0000     1.2270 oh         1 52L      -0.436500
      9 C2           2.0470     0.1170     1.2990 c3         1 52L      -0.161700
     10 C3           2.1860    -1.2690     1.9330 c3         1 52L       0.154100
     11 O3           2.9940    -2.0980     1.0950 oh         1 52L      -0.570800
     12 O4           4.0890    -0.4440     3.1740 oh         1 52L      -0.582800
     13 O5           1.8570    -3.2230     4.0210 oh         1 52L      -0.623800
     14 P            4.8160    -3.9350     7.1760 p5         1 52L       1.199900
     15 O2P          4.9310    -5.5160     7.4590 o          1 52L      -0.921167
     16 O3P          6.2880    -3.2850     7.1540 o          1 52L      -0.921167
     17 O1P          4.0120    -3.3000     8.2440 o          1 52L      -0.921167
     18 H1           2.1930    -0.5830     3.9700 h1         1 52L       0.030700
     19 H2           3.7530    -3.0840     3.2250 h1         1 52L       0.057700
     20 H3           4.6570    -1.7970     5.1740 h1         1 52L       0.017200
     21 H4           3.0720    -1.9210     5.9490 h1         1 52L       0.017200
     22 H6          -1.6290    -0.1020     1.0580 ho         1 52L       0.393000
     23 H7           3.0320     0.5270     1.1100 hc         1 52L       0.062200
     24 H8           1.5070     0.7700     1.9740 hc         1 52L       0.062200
     25 H9           1.2050    -1.7160     2.0450 h1         1 52L       0.044700
     26 H10          2.5360    -2.9010     0.9100 ho         1 52L       0.381000
     27 H11          4.1160     0.2730     3.7860 ho         1 52L       0.383000
     28 H12          1.9540    -4.1070     3.7060 ho         1 52L       0.396000
     29 C17          2.0290    -0.1130    -1.2730 c          1 52L       0.809300
     30 O6           4.1020    -3.6960     5.7520 os         1 52L      -0.584200
@<TRIPOS>BOND
     1     6    29 1   
     2     5    29 1   
     3    29     7 1   
     4    11    10 1   
     5     7     1 2   
     6     7     9 1   
     7     1     8 1   
     8    10     9 1   
     9    10     2 1   
    10    13     3 1   
    11     3     2 1   
    12     3     4 1   
    13     2    12 1   
    14    30     4 1   
    15    30    14 1   
    16    17    14 1   
    17    14    16 1   
    18    14    15 1   
    19     2    18 1   
    20     3    19 1   
    21     4    20 1   
    22     4    21 1   
    23     8    22 1   
    24     9    23 1   
    25     9    24 1   
    26    10    25 1   
    27    11    26 1   
    28    12    27 1   
    29    13    28 1   
@<TRIPOS>SUBSTRUCTURE
     1 52L         1 TEMP              0 ****  ****    0 ROOT
