@<TRIPOS>MOLECULE
52L
   30    29     1     0     0
SMALL
bcc


@<TRIPOS>ATOM
      1 N1           0.0000     0.0000     0.0000 n2         1 52L      -0.439200
      2 C4           2.8470    -1.1370     3.3070 c3         1 52L       0.165100
      3 C5           3.1000    -2.5300     3.8880 c3         1 52L       0.137100
      4 C6           3.7600    -2.3980     5.2610 c3         1 52L       0.262400
      5 O30          1.3560    -0.2160    -2.4350 o          1 52L      -0.878800
      6 O29          3.2440    -0.1130    -1.2730 o          1 52L      -0.878800
      7 C1           1.2920     0.0000     0.0000 ce         1 52L       0.357300
      8 O27         -0.7070     0.0000     1.2270 oh         1 52L      -0.408500
      9 C2           2.0470     0.1170     1.2990 c3         1 52L      -0.117700
     10 C3           2.1860    -1.2690     1.9330 c3         1 52L       0.183100
     11 O3           2.9940    -2.0980     1.0950 oh         1 52L      -0.548800
     12 O4           4.0890    -0.4440     3.1740 oh         1 52L      -0.560800
     13 O5           1.8570    -3.2230     4.0210 oh         1 52L      -0.615800
     14 P            4.8160    -3.9350     7.1760 p5         1 52L       0.680900
     15 O2P          4.9310    -5.5160     7.4590 o          1 52L      -0.766500
     16 O3P          6.2880    -3.2850     7.1540 o          1 52L      -0.766500
     17 O1P          4.0120    -3.3000     8.2440 o          1 52L      -0.766500
     18 H1           2.1930    -0.5830     3.9700 h1         1 52L      -0.004300
     19 H2           3.7530    -3.0840     3.2250 h1         1 52L       0.021700
     20 H3           4.6570    -1.7970     5.1750 h1         1 52L      -0.024300
     21 H4           3.0720    -1.9210     5.9490 h1         1 52L      -0.024300
     22 H6          -1.6290     0.1080     1.0580 ho         1 52L       0.381000
     23 H7           3.0310     0.5280     1.1100 hc         1 52L       0.033700
     24 H8           1.5070     0.7700     1.9730 hc         1 52L       0.033700
     25 H9           1.2050    -1.7160     2.0450 h1         1 52L       0.011700
     26 H10          2.4950    -2.8490     0.8200 ho         1 52L       0.367000
     27 H11          4.1000     0.2960     3.7590 ho         1 52L       0.366000
     28 H12          1.9880    -4.1410     3.8490 ho         1 52L       0.390000
     29 C17          2.0290    -0.1130    -1.2730 c          1 52L       0.890300
     30 O6           4.1020    -3.6960     5.7520 os         1 52L      -0.480200
@<TRIPOS>BOND
     1     1     7 2   
     2     1     8 1   
     3     2     3 1   
     4     2    10 1   
     5     2    12 1   
     6     2    18 1   
     7     3     4 1   
     8     3    13 1   
     9     3    19 1   
    10     4    20 1   
    11     4    21 1   
    12     4    30 1   
    13     5    29 1   
    14     6    29 1   
    15     7     9 1   
    16     7    29 1   
    17     8    22 1   
    18     9    10 1   
    19     9    23 1   
    20     9    24 1   
    21    10    11 1   
    22    10    25 1   
    23    11    26 1   
    24    12    27 1   
    25    13    28 1   
    26    14    15 1   
    27    14    16 1   
    28    14    17 1   
    29    14    30 1   
@<TRIPOS>SUBSTRUCTURE
     1 52L         1 TEMP              0 ****  ****    0 ROOT
