@<TRIPOS>MOLECULE
molecule
   41    44     1     0     0
SMALL
bcc


@<TRIPOS>ATOM
      1 S1           0.0000     0.0000     0.0000 sh         1 52M      -0.426400
      2 C21          1.7630     0.0000     0.0000 c          1 52M       0.713700
      3 N1           2.4360     0.0000     1.1680 ns         1 52M      -0.451100
      4 C17          3.8260    -0.0960     1.1700 ca         1 52M       0.020600
      5 C18          4.5630     0.5090     0.1580 ca         1 52M      -0.088000
      6 C19          5.9500     0.4140     0.1600 ca         1 52M      -0.061600
      7 C20          6.7390     1.0560    -0.9130 c          1 52M       0.872200
      8 O4           6.1140     1.7360    -1.8940 o          1 52M      -0.807800
      9 O5           7.9500     0.9710    -0.9090 o          1 52M      -0.807800
     10 C16          4.4710    -0.7940     2.1880 ca         1 52M      -0.179000
     11 C15          5.8440    -0.8960     2.2020 ca         1 52M      -0.119000
     12 C14          6.6000    -0.2980     1.1900 ca         1 52M      -0.083000
     13 C10          8.0680    -0.4070     1.2020 cc         1 52M       0.159000
     14 C9           8.7450    -1.2700     0.3100 cc         1 52M      -0.184100
     15 C4          10.1580    -1.3430     0.3540 cc         1 52M       0.357700
     16 O2          10.8670    -0.6040     1.2320 os         1 52M      -0.380800
     17 C5          10.8170    -2.1880    -0.5180 cd         1 52M      -0.334200
     18 C8           8.0210    -2.0490    -0.6120 cc         1 52M      -0.013200
     19 C7           8.6780    -2.8750    -1.4650 cd         1 52M      -0.262200
     20 C6          10.0860    -2.9560    -1.4310 c          1 52M       0.588500
     21 O3          10.6710    -3.7060    -2.2050 o          1 52M      -0.617100
     22 C11          8.8800     0.3810     2.1340 ca         1 52M      -0.182300
     23 C3          10.2810     0.2380     2.1080 ca         1 52M       0.398000
     24 C2          11.0540     0.9780     2.9910 ca         1 52M      -0.256300
     25 C12          8.2790     1.2580     3.0450 ca         1 52M      -0.050000
     26 C13          9.0540     1.9810     3.9030 ca         1 52M      -0.192000
     27 C1          10.4430     1.8400     3.8870 ca         1 52M       0.138100
     28 O1          11.2010     2.5620     4.7490 oh         1 52M      -0.523100
     29 O6           2.3710    -0.0000    -1.0520 o          1 52M      -0.531100
     30 H1          -0.4430    -0.9190    -0.8490 hs         1 52M       0.253800
     31 H2           1.9410     0.1140     2.0300 hn         1 52M       0.326500
     32 H3           4.0630     1.1170    -0.5860 ha         1 52M       0.195000
     33 H5           3.8880    -1.2590     2.9740 ha         1 52M       0.115000
     34 H6           6.3380    -1.4420     2.9960 ha         1 52M       0.122000
     35 H7          11.8980    -2.2540    -0.4960 ha         1 52M       0.146000
     36 H9           6.9400    -1.9890    -0.6410 ha         1 52M       0.146000
     37 H10          8.1190    -3.4730    -2.1750 ha         1 52M       0.140000
     38 H11         12.1350     0.9310     2.9350 ha         1 52M       0.152000
     39 H12          7.2090     1.4250     3.0120 ha         1 52M       0.155000
     40 H13          8.5900     2.6690     4.5990 ha         1 52M       0.137000
     41 H14         11.3620     2.0540     5.5270 ho         1 52M       0.415000
@<TRIPOS>BOND
     1    28    27 1   
     2    27    24 ar  
     3    27    26 ar  
     4    24    23 ar  
     5    26    25 ar  
     6    23    16 1   
     7    23    22 ar  
     8    25    22 ar  
     9    16    15 1   
    10    22    13 1   
    11     9     7 1   
    12    15    17 2   
    13    15    14 1   
    14    13    14 2   
    15    13    12 1   
    16    17    20 1   
    17    14    18 1   
    18     7     8 1   
    19     7     6 1   
    20    12     6 ar  
    21    12    11 ar  
    22     6     5 ar  
    23    11    10 ar  
    24    20    21 2   
    25    20    19 1   
    26    18    19 2   
    27     5     4 ar  
    28    10     4 ar  
    29     4     3 1   
    30     3     2 1   
    31     2    29 2   
    32     2     1 1   
    33     1    30 1   
    34     3    31 1   
    35     5    32 1   
    36    10    33 1   
    37    11    34 1   
    38    17    35 1   
    39    18    36 1   
    40    19    37 1   
    41    24    38 1   
    42    25    39 1   
    43    26    40 1   
    44    28    41 1   
@<TRIPOS>SUBSTRUCTURE
     1 52M         1 TEMP              0 ****  ****    0 ROOT
