@<TRIPOS>MOLECULE
52M
   41    44     1     0     0
SMALL
bcc


@<TRIPOS>ATOM
      1 S1           0.0000     0.0000     0.0000 sh         1 52M      -0.414400
      2 C21          1.7630     0.0000     0.0000 c          1 52M       0.608700
      3 N1           2.4360     0.0000     1.1680 ns         1 52M       0.016900
      4 C17          3.8260    -0.0960     1.1700 ca         1 52M      -0.143400
      5 C18          4.5630     0.5090     0.1580 ca         1 52M      -0.053000
      6 C19          5.9500     0.4140     0.1600 ca         1 52M      -0.061600
      7 C20          6.7390     1.0560    -0.9130 c          1 52M       0.961200
      8 O4           6.1140     1.7360    -1.8940 o          1 52M      -0.858300
      9 O5           7.9500     0.9710    -0.9090 o          1 52M      -0.858300
     10 C16          4.4710    -0.7940     2.1880 ca         1 52M      -0.149000
     11 C15          5.8440    -0.8960     2.2020 ca         1 52M      -0.101000
     12 C14          6.6000    -0.2980     1.1900 ca         1 52M      -0.073000
     13 C10          8.0680    -0.4070     1.2020 cc         1 52M       0.189000
     14 C9           8.7450    -1.2700     0.3100 cd         1 52M      -0.196100
     15 C4          10.1580    -1.3430     0.3540 cd         1 52M       0.368700
     16 O2          10.8670    -0.6040     1.2320 os         1 52M      -0.346800
     17 C5          10.8170    -2.1880    -0.5180 cc         1 52M      -0.340200
     18 C8           8.0210    -2.0490    -0.6120 cd         1 52M       0.017800
     19 C7           8.6780    -2.8750    -1.4650 cc         1 52M      -0.246200
     20 C6          10.0860    -2.9560    -1.4310 c          1 52M       0.640500
     21 O3          10.6710    -3.7060    -2.2050 o          1 52M      -0.657100
     22 C11          8.8800     0.3810     2.1340 ca         1 52M      -0.195300
     23 C3          10.2810     0.2380     2.1080 ca         1 52M       0.408000
     24 C2          11.0540     0.9780     2.9910 ca         1 52M      -0.256300
     25 C12          8.2790     1.2580     3.0450 ca         1 52M      -0.017000
     26 C13          9.0540     1.9810     3.9030 ca         1 52M      -0.182000
     27 C1          10.4430     1.8400     3.8870 ca         1 52M       0.160100
     28 O1          11.2010     2.5620     4.7490 oh         1 52M      -0.504100
     29 O6           2.3710    -0.0000    -1.0520 o          1 52M      -0.570100
     30 H1          -0.4430    -0.9190    -0.8490 hs         1 52M       0.214800
     31 H2           1.9410     0.1140     2.0300 hn         1 52M       0.167500
     32 H3           4.0630     1.1170    -0.5860 ha         1 52M       0.172000
     33 H5           3.8880    -1.2590     2.9740 ha         1 52M       0.093000
     34 H6           6.3380    -1.4420     2.9960 ha         1 52M       0.097000
     35 H7          11.8980    -2.2540    -0.4960 ha         1 52M       0.126000
     36 H9           6.9400    -1.9890    -0.6410 ha         1 52M       0.115000
     37 H10          8.1190    -3.4730    -2.1750 ha         1 52M       0.115000
     38 H11         12.1350     0.9310     2.9350 ha         1 52M       0.126000
     39 H12          7.2090     1.4250     3.0120 ha         1 52M       0.121000
     40 H13          8.5900     2.6690     4.5990 ha         1 52M       0.111000
     41 H14         11.3620     2.0540     5.5270 ho         1 52M       0.397000
@<TRIPOS>BOND
     1     1     2 1   
     2     1    30 1   
     3     2     3 1   
     4     2    29 2   
     5     3     4 1   
     6     3    31 1   
     7     4     5 ar  
     8     4    10 ar  
     9     5     6 ar  
    10     5    32 1   
    11     6     7 1   
    12     6    12 ar  
    13     7     8 1   
    14     7     9 1   
    15    10    11 ar  
    16    10    33 1   
    17    11    12 ar  
    18    11    34 1   
    19    12    13 1   
    20    13    14 2   
    21    13    22 1   
    22    14    15 1   
    23    14    18 1   
    24    15    16 1   
    25    15    17 2   
    26    16    23 1   
    27    17    20 1   
    28    17    35 1   
    29    18    19 2   
    30    18    36 1   
    31    19    20 1   
    32    19    37 1   
    33    20    21 2   
    34    22    23 ar  
    35    22    25 ar  
    36    23    24 ar  
    37    24    27 ar  
    38    24    38 1   
    39    25    26 ar  
    40    25    39 1   
    41    26    27 ar  
    42    26    40 1   
    43    27    28 1   
    44    28    41 1   
@<TRIPOS>SUBSTRUCTURE
     1 52M         1 TEMP              0 ****  ****    0 ROOT
