@<TRIPOS>MOLECULE
52P
   37    40     1     0     0
SMALL
bcc


@<TRIPOS>ATOM
      1 F1           0.0000     0.0000     0.0000 f          1 52P      -0.116900
      2 C2           1.3510     0.0000     0.0000 ca         1 52P       0.172900
      3 C3           2.0420     0.0000     1.1990 ca         1 52P      -0.162000
      4 C4           3.4230     0.0000     1.2040 ca         1 52P       0.019000
      5 C5           4.1210     0.0020     0.0030 ca         1 52P      -0.036100
      6 S6           5.8830     0.0010     0.0050 ss         1 52P      -0.320200
      7 C7           6.2790     1.6660    -0.4170 cc         1 52P       0.567600
      8 C8           7.6260     2.0280    -0.6250 cc         1 52P      -0.189300
      9 C9           7.9400     3.3100    -0.9520 cd         1 52P      -0.025000
     10 C10          6.9080     4.2570    -1.0740 cd         1 52P      -0.151300
     11 C11          7.1850     5.5900    -1.4080 cc         1 52P      -0.201400
     12 C12          8.5720     6.0460    -1.6420 ca         1 52P      -0.003800
     13 C13          9.1210     5.9910    -2.9260 ca         1 52P      -0.013600
     14 Cl14         8.1760     5.3890    -4.2510 cl         1 52P      -0.011400
     15 C15         10.4170     6.4180    -3.1370 ca         1 52P      -0.100000
     16 C16         11.1720     6.8990    -2.0820 ca         1 52P      -0.078000
     17 C17         10.6340     6.9550    -0.8090 ca         1 52P      -0.100000
     18 C18          9.3380     6.5380    -0.5830 ca         1 52P      -0.013600
     19 Cl19         8.6660     6.6100     1.0160 cl         1 52P      -0.011400
     20 C20          6.0950     6.4850    -1.5130 c          1 52P       0.697700
     21 O21          6.2870     7.6590    -1.8030 o          1 52P      -0.584100
     22 N22          4.8480     6.0360    -1.2940 nc         1 52P      -0.552100
     23 C23          4.6100     4.7930    -0.9840 cd         1 52P       0.374700
     24 N24          5.6070     3.8800    -0.8660 na         1 52P       0.508300
     25 N25          5.3160     2.5500    -0.5370 nd         1 52P      -0.617800
     26 C26          3.4260     0.0020    -1.2020 ca         1 52P       0.201900
     27 F27          4.1000     0.0020    -2.3730 f          1 52P      -0.113900
     28 C28          2.0430    -0.0050    -1.2000 ca         1 52P      -0.182000
     29 H3           1.4990    -0.0010     2.1360 ha         1 52P       0.130000
     30 H4           3.9620     0.0000     2.1440 ha         1 52P       0.125000
     31 H8           8.4140     1.3040    -0.4550 ha         1 52P       0.138000
     32 H9           8.9720     3.5990    -1.1140 ha         1 52P       0.140000
     33 H15         10.8440     6.3760    -4.1320 ha         1 52P       0.117000
     34 H16         12.1890     7.2300    -2.2530 ha         1 52P       0.109000
     35 H17         11.2300     7.3350     0.0120 ha         1 52P       0.117000
     36 H23          3.5870     4.4790    -0.8160 h5         1 52P       0.023800
     37 H28          1.5000    -0.0050    -2.1380 ha         1 52P       0.143000
@<TRIPOS>BOND
     1     1     2 1   
     2     2     3 ar  
     3     2    28 ar  
     4     3     4 ar  
     5     3    29 1   
     6     4     5 ar  
     7     4    30 1   
     8     5     6 1   
     9     5    26 ar  
    10     6     7 1   
    11     7     8 1   
    12     7    25 2   
    13     8     9 2   
    14     8    31 1   
    15     9    10 1   
    16     9    32 1   
    17    10    11 2   
    18    10    24 1   
    19    11    12 1   
    20    11    20 1   
    21    12    13 ar  
    22    12    18 ar  
    23    13    14 1   
    24    13    15 ar  
    25    15    16 ar  
    26    15    33 1   
    27    16    17 ar  
    28    16    34 1   
    29    17    18 ar  
    30    17    35 1   
    31    18    19 1   
    32    20    21 2   
    33    20    22 1   
    34    22    23 2   
    35    23    24 1   
    36    23    36 1   
    37    24    25 1   
    38    26    27 1   
    39    26    28 ar  
    40    28    37 1   
@<TRIPOS>SUBSTRUCTURE
     1 52P         1 TEMP              0 ****  ****    0 ROOT
