@<TRIPOS>MOLECULE
molecule
   37    40     1     0     0
SMALL
bcc


@<TRIPOS>ATOM
      1 F1           0.0000     0.0000     0.0000 f          1 52P      -0.123900
      2 C2           1.3510     0.0000     0.0000 ca         1 52P       0.197900
      3 C3           2.0420     0.0000     1.1990 ca         1 52P      -0.198000
      4 C4           3.4230     0.0000     1.2040 ca         1 52P      -0.018000
      5 C5           4.1210     0.0020     0.0030 ca         1 52P      -0.090100
      6 S6           5.8830     0.0010     0.0050 ss         1 52P      -0.191200
      7 C7           6.2790     1.6660    -0.4170 cc         1 52P       0.493600
      8 C8           7.6260     2.0280    -0.6250 cc         1 52P      -0.209300
      9 C9           7.9400     3.3100    -0.9520 cd         1 52P      -0.068000
     10 C10          6.9080     4.2570    -1.0740 cd         1 52P       0.023700
     11 C11          7.1850     5.5900    -1.4080 cc         1 52P      -0.204400
     12 C12          8.5720     6.0460    -1.6420 ca         1 52P      -0.013800
     13 C13          9.1210     5.9910    -2.9260 ca         1 52P       0.052900
     14 Cl14         8.1760     5.3890    -4.2510 cl         1 52P      -0.089400
     15 C15         10.4170     6.4180    -3.1370 ca         1 52P      -0.124500
     16 C16         11.1720     6.8990    -2.0820 ca         1 52P      -0.108000
     17 C17         10.6340     6.9550    -0.8090 ca         1 52P      -0.124500
     18 C18          9.3380     6.5380    -0.5830 ca         1 52P       0.052900
     19 Cl19         8.6660     6.6100     1.0160 cl         1 52P      -0.089400
     20 C20          6.0950     6.4850    -1.5130 c          1 52P       0.705700
     21 O21          6.2870     7.6590    -1.8030 o          1 52P      -0.547100
     22 N22          4.8480     6.0360    -1.2940 nd         1 52P      -0.671100
     23 C23          4.6100     4.7930    -0.9840 cc         1 52P       0.579700
     24 N24          5.6070     3.8800    -0.8660 na         1 52P       0.043300
     25 N25          5.3160     2.5500    -0.5370 nd         1 52P      -0.494800
     26 C26          3.4260     0.0020    -1.2020 ca         1 52P       0.217900
     27 F27          4.1000     0.0020    -2.3730 f          1 52P      -0.115900
     28 C28          2.0430    -0.0050    -1.2000 ca         1 52P      -0.223000
     29 H3           1.4990    -0.0010     2.1360 ha         1 52P       0.158000
     30 H4           3.9620     0.0000     2.1440 ha         1 52P       0.157000
     31 H8           8.4140     1.3040    -0.4550 ha         1 52P       0.160000
     32 H9           8.9720     3.5990    -1.1140 ha         1 52P       0.174000
     33 H15         10.8440     6.3760    -4.1320 ha         1 52P       0.149000
     34 H16         12.1890     7.2300    -2.2530 ha         1 52P       0.143000
     35 H17         11.2300     7.3350     0.0120 ha         1 52P       0.149000
     36 H23          3.5870     4.4790    -0.8160 h5         1 52P       0.075800
     37 H28          1.5000    -0.0050    -2.1380 ha         1 52P       0.169000
@<TRIPOS>BOND
     1     2     1 1   
     2     2     3 ar  
     3     3    29 1   
     4     4     3 ar  
     5     4    30 1   
     6     5     4 ar  
     7     6     5 1   
     8     6     7 1   
     9     7    25 2   
    10     8     7 1   
    11     8     9 2   
    12     8    31 1   
    13     9    10 1   
    14     9    32 1   
    15    10    11 2   
    16    10    24 1   
    17    11    20 1   
    18    12    11 1   
    19    12    13 ar  
    20    13    14 1   
    21    15    13 ar  
    22    15    33 1   
    23    16    15 ar  
    24    16    34 1   
    25    17    16 ar  
    26    17    18 ar  
    27    17    35 1   
    28    18    12 ar  
    29    19    18 1   
    30    20    21 2   
    31    20    22 1   
    32    23    22 2   
    33    23    36 1   
    34    24    23 1   
    35    25    24 1   
    36    26     5 ar  
    37    26    28 ar  
    38    27    26 1   
    39    28     2 ar  
    40    28    37 1   
@<TRIPOS>SUBSTRUCTURE
     1 52P         1 TEMP              0 ****  ****    0 ROOT
