@<TRIPOS>MOLECULE
molecule
   30    32     1     0     0
SMALL
bcc


@<TRIPOS>ATOM
      1 C7           0.0000     0.0000     0.0000 cx         1 52Q      -0.092700
      2 C6           1.5300     0.0000     0.0000 cx         1 52Q      -0.158700
      3 C1          -2.9610     4.9900    -0.8600 cc         1 52Q       0.444400
      4 C5           0.0970     2.2900     0.8340 c3         1 52Q      -0.087400
      5 C4          -0.6520     1.2290     2.9830 c          1 52Q       0.881600
      6 C3           2.2250    -1.2750    -0.4050 c          1 52Q       0.911600
      7 C2          -1.7150     3.4280    -1.6900 cd         1 52Q       0.673300
      8 C8           0.7740     0.0000     1.3300 cx         1 52Q      -0.182700
      9 C9          -0.7290     1.3570    -0.0850 c3         1 52Q       0.050400
     10 C10          0.4890     1.3560     2.0060 c3         1 52Q       0.024200
     11 N11         -2.8120     5.2510    -2.1700 na         1 52Q      -0.190400
     12 N12         -2.0020     4.2280    -2.6890 nc         1 52Q      -0.537800
     13 N13         -2.2990     3.8950    -0.5820 nd         1 52Q      -0.756000
     14 N14          1.6920     1.8580     2.6820 nz         1 52Q      -0.776600
     15 O15          2.9100    -1.3280    -1.5570 o          1 52Q      -0.825800
     16 O16         -0.7940     2.1290     3.9690 o          1 52Q      -0.793300
     17 O17          2.1650    -2.2470     0.3080 o          1 52Q      -0.825800
     18 O18         -1.4370     0.3170     2.8790 o          1 52Q      -0.793300
     19 S19         -0.7210     1.9750    -1.7910 ss         1 52Q      -0.223400
     20 H1          -0.5310    -0.9290    -0.1730 hc         1 52Q       0.122700
     21 H2           1.9830     0.9480    -0.2640 hc         1 52Q       0.053700
     22 H4          -0.5110     3.1140     1.1890 hc         1 52Q       0.065700
     23 H5           0.9800     2.6490     0.3200 hc         1 52Q       0.065700
     24 H6           0.6630    -0.9290     1.8760 hc         1 52Q       0.142700
     25 H7          -1.7430     1.2640     0.2860 h1         1 52Q       0.116700
     26 H8          -3.2010     6.0220    -2.6750 hn         1 52Q       0.319700
     27 H9           2.4690     1.8190     2.0520 hn         1 52Q       0.435133
     28 H10          1.5430     2.8050     2.9700 hn         1 52Q       0.435133
     29 H143         1.8850     1.2920     3.4850 hn         1 52Q       0.435133
     30 H3          -3.5310     5.5840    -0.1560 h5         1 52Q       0.064100
@<TRIPOS>BOND
     1     3    11 1
     2     3    13 2
     3    11    12 1
     4    13     7 1
     5    12     7 2
     6     7    19 1
     7    19     9 1
     8     9     1 1
     9     9     4 1
    10     1     2 1
    11     1     8 1
    12    17     6 1
    13    15     6 1
    14     6     2 1
    15     2     8 1
    16     4    10 1
    17     8    10 1
    18    18     5 1
    19    10     5 1
    20    10    14 1
    21     5    16 1
    22     1    20 1
    23     2    21 1
    24     3    30 1
    25     4    22 1
    26     4    23 1
    27     8    24 1
    28     9    25 1
    29    11    26 1
    30    14    27 1
    31    14    28 1
    32    29    14 1
@<TRIPOS>SUBSTRUCTURE
     1 52Q         1 TEMP              0 ****  ****    0 ROOT
