@<TRIPOS>MOLECULE
52T
   53    55     1     0     0
SMALL
bcc


@<TRIPOS>ATOM
      1 C8           0.0000     0.0000     0.0000 c3         1 52T       0.028600
      2 C5           1.5080     0.0000     0.0000 ca         1 52T      -0.183300
      3 C6           2.1980     0.0000     1.1970 ca         1 52T      -0.029000
      4 C7           3.5790    -0.0010     1.2010 ca         1 52T      -0.183000
      5 C2           4.2740    -0.0010    -0.0010 ca         1 52T       0.166100
      6 C3           3.5790    -0.0010    -1.2020 ca         1 52T      -0.183000
      7 C4           2.1970    -0.0070    -1.1990 ca         1 52T      -0.029000
      8 O4           5.6330    -0.0010    -0.0010 os         1 52T      -0.307900
      9 C1           6.2820    -0.0010    -1.2750 c3         1 52T       0.243700
     10 N1          -0.4890    -1.3690    -0.1780 na         1 52T       0.647400
     11 C11         -0.8950    -2.1960     0.8000 cc         1 52T      -0.435900
     12 C12         -1.2640    -3.3530     0.1950 cd         1 52T       0.243600
     13 N3          -1.0680    -3.1820    -1.1080 nd         1 52T      -0.275000
     14 N2          -0.6110    -1.9910    -1.3030 nc         1 52T      -0.398800
     15 C13         -1.7900    -4.5590     0.9280 c3         1 52T       0.206800
     16 C10         -0.9530    -1.9600     2.2850 c3         1 52T       0.274100
     17 C14         -2.2150    -4.1220     2.3350 c3         1 52T      -0.035400
     18 C15         -1.0860    -3.3180     2.9860 c3         1 52T      -0.051400
     19 O1           0.2440    -1.3100     2.7170 oh         1 52T      -0.595800
     20 C9          -2.1630    -1.0860     2.6210 c3         1 52T      -0.044100
     21 O2          -2.9340    -5.1020     0.2170 os         1 52T      -0.416900
     22 C16         -2.6860    -6.0370    -0.7200 c          1 52T       0.684100
     23 O3          -1.5440    -6.3880    -0.9380 o          1 52T      -0.646000
     24 N4          -3.7040    -6.5810    -1.4150 ns         1 52T      -0.170900
     25 C17         -3.4330    -7.5970    -2.4340 c3         1 52T       0.028700
     26 C19         -4.6730    -8.4750    -2.6220 c3         1 52T      -0.014600
     27 C18         -3.0890    -6.9120    -3.7590 c3         1 52T      -0.014600
     28 H1          -0.3610     0.6200    -0.8110 h1         1 52T       0.047200
     29 H2          -0.3610     0.3930     0.9430 h1         1 52T       0.047200
     30 H3           1.6550     0.0000     2.1350 ha         1 52T       0.120000
     31 H4           4.1190    -0.0010     2.1400 ha         1 52T       0.120500
     32 H5           4.1190    -0.0040    -2.1410 ha         1 52T       0.120500
     33 H6           1.6540    -0.0070    -2.1360 ha         1 52T       0.120000
     34 H7           5.9910    -0.8860    -1.8280 h1         1 52T      -0.001300
     35 H8           5.9900     0.8830    -1.8290 h1         1 52T      -0.001300
     36 H9           7.3560    -0.0000    -1.1330 h1         1 52T      -0.001300
     37 H10         -1.0110    -5.3080     1.0000 h1         1 52T       0.052700
     38 H11         -2.4240    -4.9990     2.9360 hc         1 52T       0.027700
     39 H12         -3.1030    -3.5050     2.2680 hc         1 52T       0.027700
     40 H13         -0.1550    -3.8640     2.8910 hc         1 52T       0.028700
     41 H14         -1.3140    -3.1620     4.0330 hc         1 52T       0.028700
     42 H15          0.3170    -1.3760     3.6550 ho         1 52T       0.401000
     43 H16         -1.8460    -0.0560     2.7280 hc         1 52T       0.019367
     44 H17         -2.8930    -1.1580     1.8230 hc         1 52T       0.019367
     45 H18         -2.6080    -1.4260     3.5480 hc         1 52T       0.019367
     46 H19         -4.6470    -6.3160    -1.2110 hn         1 52T       0.172500
     47 H20         -2.5990    -8.2120    -2.1190 h1         1 52T       0.054700
     48 H21         -4.4460    -9.2760    -3.3150 hc         1 52T       0.011533
     49 H22         -5.4840    -7.8750    -3.0170 hc         1 52T       0.011533
     50 H23         -4.9660    -8.8950    -1.6680 hc         1 52T       0.011533
     51 H24         -2.0960    -6.4830    -3.6970 hc         1 52T       0.011533
     52 H25         -3.8090    -6.1270    -3.9570 hc         1 52T       0.011533
     53 H26         -3.1190    -7.6400    -4.5610 hc         1 52T       0.011533
@<TRIPOS>BOND
     1     1     2 1   
     2     1    10 1   
     3     1    28 1   
     4     1    29 1   
     5     2     3 ar  
     6     2     7 ar  
     7     3     4 ar  
     8     3    30 1   
     9     4     5 ar  
    10     4    31 1   
    11     5     6 ar  
    12     5     8 1   
    13     6     7 ar  
    14     6    32 1   
    15     7    33 1   
    16     8     9 1   
    17     9    34 1   
    18     9    35 1   
    19     9    36 1   
    20    10    11 1   
    21    10    14 1   
    22    11    12 2   
    23    11    16 1   
    24    12    13 1   
    25    12    15 1   
    26    13    14 2   
    27    15    17 1   
    28    15    21 1   
    29    15    37 1   
    30    16    18 1   
    31    16    19 1   
    32    16    20 1   
    33    17    18 1   
    34    17    38 1   
    35    17    39 1   
    36    18    40 1   
    37    18    41 1   
    38    19    42 1   
    39    20    43 1   
    40    20    44 1   
    41    20    45 1   
    42    21    22 1   
    43    22    23 2   
    44    22    24 1   
    45    24    25 1   
    46    24    46 1   
    47    25    26 1   
    48    25    27 1   
    49    25    47 1   
    50    26    48 1   
    51    26    49 1   
    52    26    50 1   
    53    27    51 1   
    54    27    52 1   
    55    27    53 1   
@<TRIPOS>SUBSTRUCTURE
     1 52T         1 TEMP              0 ****  ****    0 ROOT
