@<TRIPOS>MOLECULE
molecule
   53    55     1     0     0
SMALL
bcc


@<TRIPOS>ATOM
      1 C8           0.0000     0.0000     0.0000 c3         1 52T       0.116600
      2 C5           1.5080     0.0000     0.0000 ca         1 52T      -0.168300
      3 C6           2.1980     0.0000     1.1970 ca         1 52T      -0.056000
      4 C7           3.5790    -0.0010     1.2010 ca         1 52T      -0.199000
      5 C2           4.2740    -0.0010    -0.0010 ca         1 52T       0.156100
      6 C3           3.5790    -0.0010    -1.2020 ca         1 52T      -0.199000
      7 C4           2.1970    -0.0070    -1.1990 ca         1 52T      -0.056000
      8 O4           5.6330    -0.0010    -0.0010 os         1 52T      -0.328900
      9 C1           6.2820    -0.0010    -1.2750 c3         1 52T       0.127700
     10 N1          -0.4890    -1.3690    -0.1780 na         1 52T       0.160400
     11 C11         -0.8950    -2.1960     0.8000 cc         1 52T      -0.230900
     12 C12         -1.2640    -3.3530     0.1950 cd         1 52T       0.261600
     13 N3          -1.0680    -3.1820    -1.1080 nd         1 52T      -0.330000
     14 N2          -0.6110    -1.9910    -1.3030 nc         1 52T      -0.209800
     15 C13         -1.7900    -4.5590     0.9280 c3         1 52T       0.164800
     16 C10         -0.9530    -1.9600     2.2850 c3         1 52T       0.229100
     17 C14         -2.2150    -4.1220     2.3350 c3         1 52T      -0.080400
     18 C15         -1.0860    -3.3180     2.9860 c3         1 52T      -0.101400
     19 O1           0.2440    -1.3100     2.7170 oh         1 52T      -0.606800
     20 C9          -2.1630    -1.0860     2.6210 c3         1 52T      -0.123100
     21 O2          -2.9340    -5.1020     0.2170 os         1 52T      -0.434900
     22 C16         -2.6860    -6.0370    -0.7200 c          1 52T       0.754100
     23 O3          -1.5440    -6.3880    -0.9380 o          1 52T      -0.600000
     24 N4          -3.7040    -6.5810    -1.4150 ns         1 52T      -0.569900
     25 C17         -3.4330    -7.5970    -2.4340 c3         1 52T       0.131700
     26 C19         -4.6730    -8.4750    -2.6220 c3         1 52T      -0.110100
     27 C18         -3.0890    -6.9120    -3.7590 c3         1 52T      -0.110100
     28 H1          -0.3610     0.6200    -0.8110 h1         1 52T       0.076700
     29 H2          -0.3610     0.3930     0.9430 h1         1 52T       0.076700
     30 H3           1.6550     0.0000     2.1350 ha         1 52T       0.147500
     31 H4           4.1190    -0.0010     2.1400 ha         1 52T       0.141000
     32 H5           4.1190    -0.0040    -2.1410 ha         1 52T       0.141000
     33 H6           1.6540    -0.0070    -2.1360 ha         1 52T       0.147500
     34 H7           5.9910    -0.8860    -1.8280 h1         1 52T       0.042700
     35 H8           5.9900     0.8830    -1.8290 h1         1 52T       0.042700
     36 H9           7.3560    -0.0000    -1.1330 h1         1 52T       0.042700
     37 H10         -1.0110    -5.3080     1.0000 h1         1 52T       0.091700
     38 H11         -2.4240    -4.9990     2.9360 hc         1 52T       0.060700
     39 H12         -3.1030    -3.5050     2.2680 hc         1 52T       0.060700
     40 H13         -0.1550    -3.8640     2.8910 hc         1 52T       0.060200
     41 H14         -1.3140    -3.1620     4.0330 hc         1 52T       0.060200
     42 H15          0.3170    -1.3760     3.6550 ho         1 52T       0.409000
     43 H16         -1.8460    -0.0560     2.7280 hc         1 52T       0.050033
     44 H17         -2.8930    -1.1580     1.8230 hc         1 52T       0.050033
     45 H18         -2.6080    -1.4260     3.5480 hc         1 52T       0.050033
     46 H19         -4.6470    -6.3160    -1.2110 hn         1 52T       0.319500
     47 H20         -2.5990    -8.2120    -2.1190 h1         1 52T       0.078700
     48 H21         -4.4460    -9.2760    -3.3150 hc         1 52T       0.044200
     49 H22         -5.4840    -7.8750    -3.0170 hc         1 52T       0.044200
     50 H23         -4.9660    -8.8950    -1.6680 hc         1 52T       0.044200
     51 H24         -2.0960    -6.4830    -3.6970 hc         1 52T       0.044200
     52 H25         -3.8090    -6.1270    -3.9570 hc         1 52T       0.044200
     53 H26         -3.1190    -7.6400    -4.5610 hc         1 52T       0.044200
@<TRIPOS>BOND
     1     4     3 ar  
     2     4     5 ar  
     3     3     2 ar  
     4     8     5 1   
     5     8     9 1   
     6     5     6 ar  
     7     2     1 1   
     8     2     7 ar  
     9     6     7 ar  
    10     1    10 1   
    11    14    10 1   
    12    14    13 2   
    13    10    11 1   
    14    13    12 1   
    15    11    12 2   
    16    11    16 1   
    17    12    15 1   
    18    19    16 1   
    19    20    16 1   
    20    16    18 1   
    21    15    21 1   
    22    15    17 1   
    23    21    22 1   
    24    18    17 1   
    25    22    24 1   
    26    22    23 2   
    27    24    25 1   
    28    26    25 1   
    29    25    27 1   
    30     1    28 1   
    31     1    29 1   
    32     3    30 1   
    33     4    31 1   
    34     6    32 1   
    35     7    33 1   
    36     9    34 1   
    37     9    35 1   
    38     9    36 1   
    39    15    37 1   
    40    17    38 1   
    41    17    39 1   
    42    18    40 1   
    43    18    41 1   
    44    19    42 1   
    45    20    43 1   
    46    20    44 1   
    47    20    45 1   
    48    24    46 1   
    49    25    47 1   
    50    26    48 1   
    51    26    49 1   
    52    26    50 1   
    53    27    51 1   
    54    27    52 1   
    55    27    53 1   
@<TRIPOS>SUBSTRUCTURE
     1 52T         1 TEMP              0 ****  ****    0 ROOT
