@<TRIPOS>MOLECULE
52U
   80    83     1     0     0
SMALL
bcc


@<TRIPOS>ATOM
      1 C7           0.0000     0.0000     0.0000 ca         1 52U      -0.217000
      2 C6           1.3820     0.0000     0.0000 ca         1 52U       0.051500
      3 C5           2.0740     0.0000     1.1960 ca         1 52U      -0.196500
      4 C4           1.3880     0.0010     2.3960 ca         1 52U       0.051500
      5 C3           0.0060     0.0000     2.4010 ca         1 52U      -0.217000
      6 C17          3.5240     3.2710     2.5820 c3         1 52U       0.149100
      7 C19          3.9580     4.2060     3.7130 c3         1 52U       0.004700
      8 C31          1.4300     8.9750     6.3060 c3         1 52U      -0.130700
      9 C30          0.0910     9.0870     5.5420 c3         1 52U      -0.055400
     10 C29         -0.6730    10.1170     6.4050 c3         1 52U       0.213400
     11 O28          0.2960    10.8460     7.1710 os         1 52U      -0.397600
     12 C27          1.6280    10.4240     6.7920 c3         1 52U       0.413900
     13 O01          2.0250    11.2730     5.7130 os         1 52U      -0.428600
     14 C02          3.1700    10.8530     4.9750 c3         1 52U       0.233400
     15 C01          2.8470     9.5100     4.3070 c3         1 52U      -0.104400
     16 C24          2.5580     8.4900     5.4220 c3         1 52U       0.216100
     17 O23          2.1770     7.2240     4.8230 os         1 52U      -0.420900
     18 O22          4.3170     6.6380     4.8200 o          1 52U      -0.644000
     19 N20          2.8810     5.1570     4.0010 ns         1 52U      -0.170900
     20 C32          4.2620     3.3840     4.9660 c3         1 52U       0.010900
     21 C07          4.8070     4.2890     6.0410 ca         1 52U      -0.077300
     22 C06          6.1680     4.5130     6.1320 ca         1 52U      -0.091500
     23 C05          6.6680     5.3440     7.1170 ca         1 52U      -0.093000
     24 C09          5.8060     5.9510     8.0120 ca         1 52U      -0.100000
     25 C03          4.4440     5.7280     7.9200 ca         1 52U      -0.093000
     26 C08          3.9440     4.9000     6.9310 ca         1 52U      -0.091500
     27 O18          2.4230     2.4730     3.0210 oh         1 52U      -0.584800
     28 C16          4.6920     2.3610     2.1950 c3         1 52U       0.193800
     29 N11          4.3260     1.5720     1.0170 n3         1 52U      -0.520500
     30 C12          4.3960     2.1730    -0.3180 c3         1 52U       0.239800
     31 C13          5.8120     2.0150    -0.8760 c3         1 52U      -0.085700
     32 C15          5.8530     2.5340    -2.3150 c3         1 52U       0.006400
     33 C14          6.7910     2.8150    -0.0170 c3         1 52U       0.006400
     34 S8           3.8370    -0.0000     1.1910 sy         1 52U       1.057200
     35 O9           4.2410    -0.4030     2.4930 o          1 52U      -0.587300
     36 O10          4.2350    -0.6790     0.0090 o          1 52U      -0.587300
     37 C2          -0.6920     0.0050     1.2030 ca         1 52U       0.198100
     38 O03         -2.0510     0.0050     1.2050 os         1 52U      -0.305900
     39 C04         -2.7020     0.0110    -0.0660 c3         1 52U       0.245700
     40 H1          -0.5420     0.0020    -0.9380 ha         1 52U       0.124500
     41 H2           1.9230    -0.0030    -0.9390 ha         1 52U       0.125500
     42 H3           1.9330    -0.0010     3.3320 ha         1 52U       0.125500
     43 H4          -0.5320     0.0030     3.3420 ha         1 52U       0.124500
     44 H5           3.2240     3.8590     1.7230 h1         1 52U       0.009700
     45 H6           4.8470     4.7480     3.4120 h1         1 52U       0.065700
     46 H7           1.3160     8.3130     7.1560 hc         1 52U       0.049700
     47 H8          -0.4270     8.1350     5.5290 hc         1 52U       0.033200
     48 H9           0.2490     9.4650     4.5390 hc         1 52U       0.033200
     49 H10         -1.2210    10.7980     5.7640 h1         1 52U       0.006200
     50 H11         -1.3550     9.6030     7.0720 h1         1 52U       0.006200
     51 H12          2.3180    10.4790     7.6250 h2         1 52U       0.030700
     52 H13          4.0110    10.7320     5.6470 h1         1 52U       0.011700
     53 H14          3.4040    11.5900     4.2170 h1         1 52U       0.011700
     54 H15          3.6950     9.1800     3.7200 hc         1 52U       0.039200
     55 H16          1.9740     9.6170     3.6740 hc         1 52U       0.039200
     56 H17          3.4490     8.3550     6.0230 h1         1 52U       0.049700
     57 H18          1.9390     4.9390     3.7410 hn         1 52U       0.168500
     58 H19          3.3520     2.9130     5.3180 hc         1 52U       0.037200
     59 H20          4.9950     2.6230     4.7290 hc         1 52U       0.037200
     60 H21          6.8430     4.0380     5.4310 ha         1 52U       0.099000
     61 H22          7.7340     5.5190     7.1890 ha         1 52U       0.097500
     62 H23          6.1970     6.6010     8.7850 ha         1 52U       0.098000
     63 H24          3.7690     6.2050     8.6200 ha         1 52U       0.097500
     64 H25          2.8780     4.7250     6.8590 ha         1 52U       0.099000
     65 H26          1.6150     2.9150     2.8200 ho         1 52U       0.391000
     66 H27          4.9190     1.6960     3.0190 h1         1 52U       0.056700
     67 H28          5.5610     2.9660     1.9690 h1         1 52U       0.056700
     68 H29          3.6910     1.6770    -0.9740 h1         1 52U       0.015200
     69 H30          4.1490     3.2260    -0.2520 h1         1 52U       0.015200
     70 H31          6.0900     0.9680    -0.8610 hc         1 52U       0.055700
     71 H32          5.5930     3.5850    -2.3270 hc         1 52U       0.004033
     72 H33          6.8510     2.4040    -2.7170 hc         1 52U       0.004033
     73 H34          5.1460     1.9800    -2.9190 hc         1 52U       0.004033
     74 H35          7.7030     2.9900    -0.5750 hc         1 52U       0.004033
     75 H36          7.0200     2.2580     0.8840 hc         1 52U       0.004033
     76 H37          6.3440     3.7650     0.2510 hc         1 52U       0.004033
     77 H38         -2.4120     0.8970    -0.6170 h1         1 52U      -0.000300
     78 H39         -2.4130    -0.8720    -0.6240 h1         1 52U      -0.000300
     79 H40         -3.7760     0.0110     0.0780 h1         1 52U      -0.000300
     80 C21          3.1670     6.3500     4.5570 c          1 52U       0.677100
@<TRIPOS>BOND
     1     1     2 ar  
     2     1    37 ar  
     3     1    40 1   
     4     2     3 ar  
     5     2    41 1   
     6     3     4 ar  
     7     3    34 1   
     8     4     5 ar  
     9     4    42 1   
    10     5    37 ar  
    11     5    43 1   
    12     6     7 1   
    13     6    27 1   
    14     6    28 1   
    15     6    44 1   
    16     7    19 1   
    17     7    20 1   
    18     7    45 1   
    19     8     9 1   
    20     8    12 1   
    21     8    16 1   
    22     8    46 1   
    23     9    10 1   
    24     9    47 1   
    25     9    48 1   
    26    10    11 1   
    27    10    49 1   
    28    10    50 1   
    29    11    12 1   
    30    12    13 1   
    31    12    51 1   
    32    13    14 1   
    33    14    15 1   
    34    14    52 1   
    35    14    53 1   
    36    15    16 1   
    37    15    54 1   
    38    15    55 1   
    39    16    17 1   
    40    16    56 1   
    41    17    80 1   
    42    18    80 2   
    43    19    57 1   
    44    19    80 1   
    45    20    21 1   
    46    20    58 1   
    47    20    59 1   
    48    21    22 ar  
    49    21    26 ar  
    50    22    23 ar  
    51    22    60 1   
    52    23    24 ar  
    53    23    61 1   
    54    24    25 ar  
    55    24    62 1   
    56    25    26 ar  
    57    25    63 1   
    58    26    64 1   
    59    27    65 1   
    60    28    29 1   
    61    28    66 1   
    62    28    67 1   
    63    29    30 1   
    64    29    34 1   
    65    30    31 1   
    66    30    68 1   
    67    30    69 1   
    68    31    32 1   
    69    31    33 1   
    70    31    70 1   
    71    32    71 1   
    72    32    72 1   
    73    32    73 1   
    74    33    74 1   
    75    33    75 1   
    76    33    76 1   
    77    34    35 2   
    78    34    36 2   
    79    37    38 1   
    80    38    39 1   
    81    39    77 1   
    82    39    78 1   
    83    39    79 1   
@<TRIPOS>SUBSTRUCTURE
     1 52U         1 TEMP              0 ****  ****    0 ROOT
