@<TRIPOS>MOLECULE
molecule
   55    57     1     0     0
SMALL
bcc


@<TRIPOS>ATOM
      1 C1           0.0000     0.0000     0.0000 ca         1 52V       0.759200
      2 C2          -2.3570     0.0180    -6.2360 c3         1 52V       0.104700
      3 C3           0.0300    -0.0010     2.3060 ca         1 52V       0.973900
      4 C6           1.4100     0.0000     0.0000 ca         1 52V      -0.300600
      5 C12          3.1050    -0.2170    -3.7710 c3         1 52V       0.070700
      6 C13          3.7180     0.8040    -4.6850 c3         1 52V      -0.073100
      7 C14          1.9800    -0.9650    -4.4420 ca         1 52V      -0.055300
      8 C15          0.8890    -0.1430    -4.5650 ca         1 52V      -0.214000
      9 C16         -0.4460    -0.4090    -5.1500 ca         1 52V       0.113100
     10 C17         -0.4150    -1.7220    -5.5860 ca         1 52V      -0.264000
     11 C18          0.4540    -2.6500    -5.5810 cp         1 52V      -0.155000
     12 C20          3.1460    -3.9550    -7.6870 ca         1 52V      -0.067300
     13 C21          4.3370    -3.8440    -8.0980 ca         1 52V      -0.145000
     14 C22          4.8140    -4.3700    -9.1490 ca         1 52V      -0.072000
     15 C23          3.7800    -5.0850    -9.7550 ca         1 52V      -0.145000
     16 C24          2.8060    -5.6940    -9.2260 ca         1 52V      -0.067300
     17 C27          1.9130    -7.0510    -9.8540 c3         1 52V      -0.013800
     18 C25          2.3510    -4.6460    -8.3730 cp         1 52V       0.099000
     19 C19          1.9060    -2.0740    -4.8480 ca         1 52V      -0.267000
     20 O17         -1.5380     0.5540    -5.2010 os         1 52V      -0.298900
     21 C11          2.7430     0.0230    -2.2390 c1         1 52V      -0.119100
     22 C10          2.1460     0.0020    -1.2280 cg         1 52V      -0.103000
     23 C5           2.0690     0.0000     1.2300 ca         1 52V       0.517600
     24 C8           3.5750     0.0010     1.2890 c3         1 52V      -0.142400
     25 N4           1.3540    -0.0010     2.3430 nb         1 52V      -0.799000
     26 N7          -0.6760    -0.0010     3.4960 nv         1 52V      -1.062500
     27 N2          -0.6410    -0.0010     1.1630 nb         1 52V      -0.827000
     28 N9          -0.7030     0.0060    -1.1910 nv         1 52V      -0.986500
     29 H2          -1.7470    -0.1940    -7.1050 h1         1 52V       0.038367
     30 H2A         -2.8240    -0.8970    -5.8900 h1         1 52V       0.038367
     31 H2B         -3.1230     0.7370    -6.4990 h1         1 52V       0.038367
     32 H12          3.8660    -0.9870    -3.7950 hc         1 52V       0.028700
     33 H13          3.5150     0.5360    -5.7150 hc         1 52V       0.042033
     34 H13A         3.2940     1.7780    -4.4750 hc         1 52V       0.042033
     35 H13B         4.7890     0.8350    -4.5250 hc         1 52V       0.042033
     36 H15          1.0330     0.8600    -4.1820 ha         1 52V       0.107000
     37 H17         -1.3450    -2.0180    -6.0540 ha         1 52V       0.101000
     38 H26          2.5590    -2.4180    -6.1640 hc         1 52V       0.089533
     39 H26A         3.1910    -3.9060    -5.4460 hc         1 52V       0.089533
     40 H26B         1.5530    -3.8720    -6.1120 hc         1 52V       0.089533
     41 H21          5.0570    -3.4390    -7.3970 ha         1 52V       0.136500
     42 H22          5.7890    -4.0890    -9.5290 ha         1 52V       0.182000
     43 H23          4.0770    -5.5330   -10.6960 ha         1 52V       0.136500
     44 H27          1.2970    -6.7250   -10.6830 hc         1 52V       0.089533
     45 H27A         2.6050    -7.8110   -10.1950 hc         1 52V       0.089533
     46 H27B         1.2830    -7.4600    -9.0740 hc         1 52V       0.089533
     47 H19          2.7930    -2.6960    -4.8770 ha         1 52V       0.123000
     48 H8           3.8960     0.1240     2.3170 hc         1 52V       0.056367
     49 H8A          3.9520    -0.9380     0.9030 hc         1 52V       0.056367
     50 H8B          3.9590     0.8180     0.6910 hc         1 52V       0.056367
     51 HN7         -0.9110    -0.8680     3.9380 hn         1 52V       0.442300
     52 HN7A        -0.9390     0.8650     3.9220 hn         1 52V       0.442300
     53 HN9         -0.2370     0.2390    -2.0460 hn         1 52V       0.452300
     54 HN9A        -1.6860    -0.1810    -1.1930 hn         1 52V       0.452300
     55 C26          2.5630    -3.4990    -6.2300 c3         1 52V      -0.013800
@<TRIPOS>BOND
     1    28     1 1   
     2    27     1 ar  
     3     1     4 ar  
     4     2    20 1   
     5     2    29 1   
     6     2    30 1   
     7     2    31 1   
     8    27     3 ar  
     9    26     3 1   
    10     3    25 ar  
    11     4    22 1   
    12     4    23 ar  
    13     7     5 1   
    14    21     5 1   
    15     5     6 1   
    16     5    32 1   
    17     6    33 1   
    18     6    34 1   
    19     6    35 1   
    20     8     7 ar  
    21     7    19 ar  
    22     9     8 ar  
    23     8    36 1   
    24    20     9 1   
    25     9    10 ar  
    26    10    11 ar  
    27    10    37 1   
    28    11    18 1   
    29    11    19 ar  
    30    12    55 1   
    31    55    38 1   
    32    55    39 1   
    33    55    40 1   
    34    18    12 ar  
    35    12    13 ar  
    36    14    13 ar  
    37    13    41 1   
    38    15    14 ar  
    39    14    42 1   
    40    16    15 ar  
    41    15    43 1   
    42    17    16 1   
    43    16    18 ar  
    44    17    44 1   
    45    17    45 1   
    46    17    46 1   
    47    19    47 1   
    48    22    21 3   
    49    25    23 ar  
    50    23    24 1   
    51    24    48 1   
    52    24    49 1   
    53    24    50 1   
    54    26    51 1   
    55    26    52 1   
    56    28    53 1   
    57    28    54 1   
@<TRIPOS>SUBSTRUCTURE
     1 52V         1 TEMP              0 ****  ****    0 ROOT
