@<TRIPOS>MOLECULE
52V
   57    59     1     0     0
SMALL
bcc


@<TRIPOS>ATOM
      1 C1          0.1150   -0.9020    0.0670 ca        1 52V      0.486200
      2 C2         -1.5310   -2.8620   -4.8800 c3        1 52V      0.118700
      3 C3         -0.5830   -0.0070    2.0710 ca        1 52V      0.724900
      4 C6          1.3840   -0.2750    0.2150 ca        1 52V     -0.023600
      5 C12         3.8650   -0.9490   -2.8630 c3        1 52V      0.018700
      6 C13         4.2320    0.2730   -3.6920 c3        1 52V     -0.092100
      7 C14         2.9700   -1.9000   -3.6200 ca        1 52V     -0.068300
      8 C15         1.5910   -1.6460   -3.6190 ca        1 52V     -0.256000
      9 C16         0.7190   -2.6150   -4.1300 ca        1 52V      0.100100
     10 C17         1.2090   -3.7660   -4.7580 ca        1 52V     -0.155000
     11 C18         2.5930   -3.9630   -4.8390 cp        1 52V      0.066000
     12 C20         3.6660   -5.0050   -6.8240 ca        1 52V     -0.050800
     13 C21         4.1740   -6.1330   -7.4790 ca        1 52V     -0.126000
     14 C22         4.1540   -7.3800   -6.8590 ca        1 52V     -0.091000
     15 C23         3.6240   -7.5120   -5.5770 ca        1 52V     -0.126000
     16 C24         3.1090   -6.4000   -4.9040 ca        1 52V     -0.050800
     17 C27         2.5710   -6.5720   -3.5330 c3        1 52V     -0.059300
     18 C25         3.1300   -5.1410   -5.5300 cp        1 52V     -0.105000
     19 C19         3.4720   -3.0420   -4.2370 ca        1 52V     -0.116000
     20 O17        -0.6250   -2.3820   -3.8770 os        1 52V     -0.423900
     21 C11         3.1400   -0.5930   -1.6630 c1        1 52V      0.152900
     22 C10         2.3570   -0.4270   -0.7600 cg        1 52V     -0.322000
     23 C5          1.5800    0.5150    1.4110 ca        1 52V      0.536600
     24 C8          2.8900    1.1970    1.6120 c3        1 52V     -0.182400
     25 N4          0.6060    0.6460    2.3280 nb        1 52V     -0.638000
     26 N7         -1.6460    0.1580    3.1050 n4        1 52V     -0.813300
     27 N2         -0.8870   -0.7770    0.9930 nb        1 52V     -0.661000
     28 N9         -0.1670   -1.7280   -1.1210 n4        1 52V     -0.821300
     29 H2         -2.4940   -2.3460   -4.6390 h1        1 52V      0.065367
     30 H2A        -1.1740   -2.5830   -5.9000 h1        1 52V      0.065367
     31 H2B        -1.6360   -3.9700   -4.7850 h1        1 52V      0.065367
     32 H12         4.8220   -1.4830   -2.5690 hc        1 52V      0.123700
     33 H13         4.7920   -0.0580   -4.6020 hc        1 52V      0.069367
     34 H13A        3.3170    0.8220   -4.0190 hc        1 52V      0.069367
     35 H13B        4.8830    0.9620   -3.1020 hc        1 52V      0.069367
     36 H15         1.2030   -0.6680   -3.3000 ha        1 52V      0.129000
     37 H17         0.5210   -4.5050   -5.1980 ha        1 52V      0.173000
     38 H26         2.6820   -3.4860   -7.9700 hc        1 52V      0.046867
     39 H26A        3.9300   -2.8680   -6.8070 hc        1 52V      0.046867
     40 H26B        4.4430   -3.6880   -8.3410 hc        1 52V      0.046867
     41 H21         4.5930   -6.0300   -8.4930 ha        1 52V      0.150500
     42 H22         4.5570   -8.2620   -7.3820 ha        1 52V      0.155000
     43 H23         3.6110   -8.5000   -5.0890 ha        1 52V      0.150500
     44 H27         3.3420   -6.2750   -2.7790 hc        1 52V      0.046867
     45 H27A        1.6620   -5.9390   -3.3780 hc        1 52V      0.046867
     46 H27B        2.2920   -7.6380   -3.3430 hc        1 52V      0.046867
     47 H19         4.5570   -3.2340   -4.2660 ha        1 52V      0.170000
     48 H8          2.9530    2.0780    0.9180 hc        1 52V      0.108367
     49 H8A         3.0280    1.5640    2.6610 hc        1 52V      0.108367
     50 H8B         3.7220    0.4880    1.3630 hc        1 52V      0.108367
     51 HN7        -1.2960   -0.2020    4.0070 hn        1 52V      0.496467
     52 HN7A       -2.5000   -0.3530    2.8380 hn        1 52V      0.496467
     53 HN9         0.7260   -2.0670   -1.5350 hn        1 52V      0.495800
     54 HN9A       -0.6490   -1.1700   -1.8490 hn        1 52V      0.495800
     55 H73        -1.8630    1.1620    3.2050 hn        1 52V      0.496467
     56 H93        -0.7600   -2.5360   -0.8870 hn        1 52V      0.495800
     57 C26         3.6850   -3.6950   -7.5190 c3        1 52V     -0.059300
@<TRIPOS>BOND
     1    1    4 ar  
     2    1   27 ar  
     3    1   28 1   
     4    2   20 1   
     5    2   29 1   
     6    2   30 1   
     7    2   31 1   
     8    3   25 ar  
     9    3   26 1   
    10    3   27 ar  
    11    4   22 1   
    12    4   23 ar  
    13    5    6 1   
    14    5    7 1   
    15    5   21 1   
    16    5   32 1   
    17    6   33 1   
    18    6   34 1   
    19    6   35 1   
    20    7    8 ar  
    21    7   19 ar  
    22    8    9 ar  
    23    8   36 1   
    24    9   10 ar  
    25    9   20 1   
    26   10   11 ar  
    27   10   37 1   
    28   11   18 1   
    29   11   19 ar  
    30   12   13 ar  
    31   12   18 ar  
    32   12   57 1   
    33   13   14 ar  
    34   13   41 1   
    35   14   15 ar  
    36   14   42 1   
    37   15   16 ar  
    38   15   43 1   
    39   16   17 1   
    40   16   18 ar  
    41   17   44 1   
    42   17   45 1   
    43   17   46 1   
    44   19   47 1   
    45   21   22 3   
    46   23   24 1   
    47   23   25 ar  
    48   24   48 1   
    49   24   49 1   
    50   24   50 1   
    51   26   51 1   
    52   26   52 1   
    53   26   55 1   
    54   28   53 1   
    55   28   54 1   
    56   28   56 1   
    57   38   57 1   
    58   39   57 1   
    59   40   57 1   
@<TRIPOS>SUBSTRUCTURE
     1 52V         1 TEMP              0 ****  ****    0 ROOT
