@<TRIPOS>MOLECULE
molecule
   81    84     1     0     0
SMALL
bcc


@<TRIPOS>ATOM
      1 N11          0.0000     0.0000     0.0000 n3         1 52W      -0.814500
      2 C12          1.4650     0.0000     0.0000 c3         1 52W       0.230800
      3 C13          1.9740     0.0000     1.4430 c3         1 52W      -0.099700
      4 C14          1.5360    -1.2900     2.1390 c3         1 52W      -0.092100
      5 C15          3.5020     0.0860     1.4440 c3         1 52W      -0.092100
      6 C31         -2.1680     9.1160    -1.8870 c3         1 52W      -0.130700
      7 C1          -1.4850     9.0500    -3.2670 c3         1 52W       0.126100
      8 O1          -2.1830     8.1510    -4.1300 oh         1 52W      -0.590800
      9 C29         -1.5880    10.4980    -3.7910 c3         1 52W       0.095400
     10 O28         -2.3000    11.2600    -2.7990 os         1 52W      -0.384600
     11 C27         -2.0500    10.6100    -1.5230 c3         1 52W       0.346900
     12 O01         -0.7060    10.9370    -1.1650 os         1 52W      -0.445600
     13 C02         -0.1320    10.1520    -0.1230 c3         1 52W       0.152400
     14 C01         -0.0600     8.6950    -0.5970 c3         1 52W      -0.146400
     15 C24         -1.4880     8.2170    -0.8760 c3         1 52W       0.178100
     16 O23         -1.4450     6.8620    -1.3940 os         1 52W      -0.429900
     17 C21         -1.4730     5.8610    -0.4930 c          1 52W       0.746100
     18 O22         -1.5320     6.1150     0.6940 o          1 52W      -0.605000
     19 N20         -1.4360     4.5800    -0.9080 ns         1 52W      -0.566900
     20 C19         -1.4680     3.4910     0.0720 c3         1 52W       0.125700
     21 C07         -3.5280     4.3640     1.1410 ca         1 52W      -0.069300
     22 C06         -3.4410     4.4730     2.5170 ca         1 52W      -0.116000
     23 C05         -3.9950     5.5630     3.1600 ca         1 52W      -0.122500
     24 C09         -4.6360     6.5460     2.4270 ca         1 52W      -0.128000
     25 C03         -4.7220     6.4380     1.0520 ca         1 52W      -0.122500
     26 C08         -4.1690     5.3460     0.4100 ca         1 52W      -0.116000
     27 C17         -0.8120     2.2460    -0.5270 c3         1 52W       0.109100
     28 O18         -1.5910     1.7820    -1.6310 oh         1 52W      -0.577800
     29 C16         -0.7320     1.1500     0.5370 c3         1 52W       0.235800
     30 S8          -0.8270    -1.2970    -0.6150 sy         1 52W       1.425200
     31 O9          -2.1110    -0.8130    -0.9880 o          1 52W      -0.628800
     32 O10          0.0540    -1.9420    -1.5220 o          1 52W      -0.628800
     33 C5          -1.0890    -2.4250     0.7130 ca         1 52W      -0.358500
     34 C4          -2.2280    -2.3250     1.4890 ca         1 52W       0.009000
     35 C3          -2.4360    -3.2090     2.5310 ca         1 52W      -0.216000
     36 C2          -1.4990    -4.1970     2.7980 ca         1 52W       0.193100
     37 O03         -1.7000    -5.0660     3.8220 os         1 52W      -0.322900
     38 C04         -0.6940    -6.0580     4.0390 c3         1 52W       0.126700
     39 C7          -0.3560    -4.2940     2.0180 ca         1 52W      -0.216000
     40 C6          -0.1560    -3.4120     0.9730 ca         1 52W       0.009000
     41 H1           1.8260     0.8850    -0.5110 h1         1 52W       0.061200
     42 H2           1.8260    -0.8840    -0.5110 h1         1 52W       0.061200
     43 H3           1.5640     0.8530     1.9700 hc         1 52W       0.052700
     44 H4           1.8100    -2.1410     1.5280 hc         1 52W       0.037867
     45 H5           2.0250    -1.3640     3.1030 hc         1 52W       0.037867
     46 H6           0.4620    -1.2770     2.2790 hc         1 52W       0.037867
     47 H7           3.8620     0.1110     2.4650 hc         1 52W       0.037867
     48 H8           3.9130    -0.7790     0.9380 hc         1 52W       0.037867
     49 H9           3.8140     0.9870     0.9290 hc         1 52W       0.037867
     50 H10         -3.2120     8.8420    -1.9800 hc         1 52W       0.098700
     51 H11         -3.4820     2.9620    -0.4610 hc         1 52W       0.065700
     52 H12         -2.9480     2.3160     1.0970 hc         1 52W       0.065700
     53 H13         -0.4470     8.7580    -3.1610 h1         1 52W       0.052700
     54 H14         -1.6320     7.9270    -4.8610 ho         1 52W       0.402000
     55 H15         -2.1330    10.5130    -4.7270 h1         1 52W       0.059200
     56 H16         -0.5960    10.9110    -3.9290 h1         1 52W       0.059200
     57 H17         -2.7650    10.9070    -0.7650 h2         1 52W       0.091700
     58 H18         -0.7510    10.2160     0.7630 h1         1 52W       0.055200
     59 H19          0.8660    10.5120     0.0960 h1         1 52W       0.055200
     60 H20          0.5280     8.6350    -1.5050 hc         1 52W       0.066700
     61 H21          0.3850     8.0810     0.1760 hc         1 52W       0.066700
     62 H22         -2.0530     8.2330     0.0480 h1         1 52W       0.081700
     63 H23         -1.3590     4.3720    -1.8840 hn         1 52W       0.323500
     64 H24         -0.9270     3.7900     0.9620 h1         1 52W       0.082700
     65 H25         -2.9400     3.7030     3.0910 ha         1 52W       0.125000
     66 H26         -3.9280     5.6490     4.2380 ha         1 52W       0.123500
     67 H27         -5.0690     7.4010     2.9320 ha         1 52W       0.123000
     68 H28         -5.2240     7.2070     0.4780 ha         1 52W       0.123500
     69 H29         -4.2360     5.2610    -0.6680 ha         1 52W       0.125000
     70 H30          0.1860     2.4920    -0.8680 h1         1 52W       0.042700
     71 H31         -1.1160     1.9250    -2.4330 ho         1 52W       0.400000
     72 H32         -1.7330     0.8430     0.8150 h1         1 52W       0.067200
     73 H33         -0.2160     1.5310     1.4100 h1         1 52W       0.067200
     74 H34         -2.9600    -1.5540     1.2800 ha         1 52W       0.152000
     75 H35         -3.3290    -3.1300     3.1390 ha         1 52W       0.146000
     76 H36         -0.9960    -6.7070     4.8520 h1         1 52W       0.045700
     77 H37          0.2420    -5.5740     4.2930 h1         1 52W       0.045700
     78 H38         -0.5640    -6.6450     3.1380 h1         1 52W       0.045700
     79 H39          0.3760    -5.0660     2.2230 ha         1 52W       0.146000
     80 H40          0.7360    -3.4880     0.3640 ha         1 52W       0.152000
     81 C32         -2.9200     3.1770     0.4400 c3         1 52W      -0.047100
@<TRIPOS>BOND
     1    12    11 1   
     2    12    13 1   
     3    11    10 1   
     4    11     6 1   
     5    13    14 1   
     6    10     9 1   
     7     6     7 1   
     8     6    15 1   
     9    14    15 1   
    10     8     7 1   
    11     7     9 1   
    12    15    16 1   
    13    16    17 1   
    14    17    18 2   
    15    17    19 1   
    16    19    20 1   
    17    23    24 ar  
    18    23    22 ar  
    19    24    25 ar  
    20    22    21 ar  
    21    25    26 ar  
    22    20    27 1   
    23    20    81 1   
    24    21    26 ar  
    25    21    81 1   
    26     5     3 1   
    27    28    27 1   
    28    27    29 1   
    29     4     3 1   
    30     3     2 1   
    31    29     1 1   
    32     1     2 1   
    33     1    30 1   
    34    32    30 2   
    35    31    30 2   
    36    30    33 1   
    37    33    34 ar  
    38    33    40 ar  
    39    34    35 ar  
    40    40    39 ar  
    41    35    36 ar  
    42    39    36 ar  
    43    36    37 1   
    44    37    38 1   
    45     2    41 1   
    46     2    42 1   
    47     3    43 1   
    48     4    44 1   
    49     4    45 1   
    50     4    46 1   
    51     5    47 1   
    52     5    48 1   
    53     5    49 1   
    54     6    50 1   
    55    81    51 1   
    56    81    52 1   
    57     7    53 1   
    58     8    54 1   
    59     9    55 1   
    60     9    56 1   
    61    11    57 1   
    62    13    58 1   
    63    13    59 1   
    64    14    60 1   
    65    14    61 1   
    66    15    62 1   
    67    19    63 1   
    68    20    64 1   
    69    22    65 1   
    70    23    66 1   
    71    24    67 1   
    72    25    68 1   
    73    26    69 1   
    74    27    70 1   
    75    28    71 1   
    76    29    72 1   
    77    29    73 1   
    78    34    74 1   
    79    35    75 1   
    80    38    76 1   
    81    38    77 1   
    82    38    78 1   
    83    39    79 1   
    84    40    80 1   
@<TRIPOS>SUBSTRUCTURE
     1 52W         1 TEMP              0 ****  ****    0 ROOT
