@<TRIPOS>MOLECULE
52W
   81    84     1     0     0
SMALL
bcc


@<TRIPOS>ATOM
      1 N11          0.0000     0.0000     0.0000 n3         1 52W      -0.525500
      2 C12          1.4650     0.0000     0.0000 c3         1 52W       0.223800
      3 C13          1.9740     0.0000     1.4430 c3         1 52W      -0.082700
      4 C14          1.5360    -1.2900     2.1390 c3         1 52W      -0.005100
      5 C15          3.5020     0.0860     1.4440 c3         1 52W      -0.005100
      6 C31         -2.1680     9.1160    -1.8870 c3         1 52W      -0.133700
      7 C1          -1.4850     9.0500    -3.2670 c3         1 52W       0.161100
      8 O1          -2.1830     8.1510    -4.1300 oh         1 52W      -0.573800
      9 C29         -1.5880    10.4980    -3.7910 c3         1 52W       0.174400
     10 O28         -2.3000    11.2600    -2.7990 os         1 52W      -0.386600
     11 C27         -2.0500    10.6100    -1.5230 c3         1 52W       0.410900
     12 O01         -0.7060    10.9370    -1.1650 os         1 52W      -0.433600
     13 C02         -0.1320    10.1520    -0.1230 c3         1 52W       0.233400
     14 C01         -0.0600     8.6950    -0.5970 c3         1 52W      -0.107400
     15 C24         -1.4880     8.2170    -0.8760 c3         1 52W       0.214100
     16 O23         -1.4450     6.8620    -1.3940 os         1 52W      -0.410900
     17 C21         -1.4730     5.8610    -0.4930 c          1 52W       0.675100
     18 O22         -1.5320     6.1150     0.6940 o          1 52W      -0.653000
     19 N20         -1.4360     4.5800    -0.9080 ns         1 52W      -0.163900
     20 C19         -1.4680     3.4910     0.0720 c3         1 52W       0.012700
     21 C07         -3.5280     4.3640     1.1410 ca         1 52W      -0.076300
     22 C06         -3.4410     4.4730     2.5170 ca         1 52W      -0.091500
     23 C05         -3.9950     5.5630     3.1600 ca         1 52W      -0.094000
     24 C09         -4.6360     6.5460     2.4270 ca         1 52W      -0.102000
     25 C03         -4.7220     6.4380     1.0520 ca         1 52W      -0.094000
     26 C08         -4.1690     5.3460     0.4100 ca         1 52W      -0.091500
     27 C17         -0.8120     2.2460    -0.5270 c3         1 52W       0.149100
     28 O18         -1.5910     1.7820    -1.6310 oh         1 52W      -0.551800
     29 C16         -0.7320     1.1500     0.5370 c3         1 52W       0.217800
     30 S8          -0.8270    -1.2970    -0.6150 sy         1 52W       1.051200
     31 O9          -2.1110    -0.8130    -0.9880 o          1 52W      -0.579800
     32 O10          0.0540    -1.9420    -1.5220 o          1 52W      -0.579800
     33 C5          -1.0890    -2.4250     0.7130 ca         1 52W      -0.207500
     34 C4          -2.2280    -2.3250     1.4890 ca         1 52W       0.046500
     35 C3          -2.4360    -3.2090     2.5310 ca         1 52W      -0.211500
     36 C2          -1.4990    -4.1970     2.7980 ca         1 52W       0.203100
     37 O03         -1.7000    -5.0660     3.8220 os         1 52W      -0.304900
     38 C04         -0.6940    -6.0580     4.0390 c3         1 52W       0.244700
     39 C7          -0.3560    -4.2940     2.0180 ca         1 52W      -0.211500
     40 C6          -0.1560    -3.4120     0.9730 ca         1 52W       0.046500
     41 H1           1.8260     0.8850    -0.5110 h1         1 52W       0.030200
     42 H2           1.8260    -0.8840    -0.5110 h1         1 52W       0.030200
     43 H3           1.5640     0.8530     1.9700 hc         1 52W       0.029700
     44 H4           1.8100    -2.1410     1.5280 hc         1 52W       0.007533
     45 H5           2.0250    -1.3640     3.1030 hc         1 52W       0.007533
     46 H6           0.4620    -1.2770     2.2790 hc         1 52W       0.007533
     47 H7           3.8620     0.1110     2.4650 hc         1 52W       0.007533
     48 H8           3.9130    -0.7790     0.9380 hc         1 52W       0.007533
     49 H9           3.8140     0.9870     0.9290 hc         1 52W       0.007533
     50 H10         -3.2120     8.8420    -1.9800 hc         1 52W       0.067700
     51 H11         -3.4820     2.9620    -0.4610 hc         1 52W       0.037200
     52 H12         -2.9480     2.3160     1.0970 hc         1 52W       0.037200
     53 H13         -0.4470     8.7580    -3.1610 h1         1 52W       0.023700
     54 H14         -1.6320     7.9270    -4.8610 ho         1 52W       0.388000
     55 H15         -2.1330    10.5130    -4.7270 h1         1 52W       0.018200
     56 H16         -0.5960    10.9110    -3.9290 h1         1 52W       0.018200
     57 H17         -2.7650    10.9070    -0.7650 h2         1 52W       0.037700
     58 H18         -0.7510    10.2160     0.7630 h1         1 52W       0.012200
     59 H19          0.8660    10.5120     0.0960 h1         1 52W       0.012200
     60 H20          0.5280     8.6350    -1.5050 hc         1 52W       0.038700
     61 H21          0.3850     8.0810     0.1760 hc         1 52W       0.038700
     62 H22         -2.0530     8.2330     0.0480 h1         1 52W       0.049700
     63 H23         -1.3590     4.3720    -1.8840 hn         1 52W       0.174500
     64 H24         -0.9270     3.7900     0.9620 h1         1 52W       0.060700
     65 H25         -2.9400     3.7030     3.0910 ha         1 52W       0.100000
     66 H26         -3.9280     5.6490     4.2380 ha         1 52W       0.097000
     67 H27         -5.0690     7.4010     2.9320 ha         1 52W       0.097000
     68 H28         -5.2240     7.2070     0.4780 ha         1 52W       0.097000
     69 H29         -4.2360     5.2610    -0.6680 ha         1 52W       0.100000
     70 H30          0.1860     2.4920    -0.8680 h1         1 52W       0.006700
     71 H31         -1.1160     1.9250    -2.4330 ho         1 52W       0.385000
     72 H32         -1.7330     0.8430     0.8150 h1         1 52W       0.035700
     73 H33         -0.2160     1.5310     1.4100 h1         1 52W       0.035700
     74 H34         -2.9600    -1.5540     1.2800 ha         1 52W       0.123000
     75 H35         -3.3290    -3.1300     3.1390 ha         1 52W       0.125000
     76 H36         -0.9960    -6.7070     4.8520 h1         1 52W       0.000033
     77 H37          0.2420    -5.5740     4.2930 h1         1 52W       0.000033
     78 H38         -0.5640    -6.6450     3.1380 h1         1 52W       0.000033
     79 H39          0.3760    -5.0660     2.2230 ha         1 52W       0.125000
     80 H40          0.7360    -3.4880     0.3640 ha         1 52W       0.123000
     81 C32         -2.9200     3.1770     0.4400 c3         1 52W       0.011900
@<TRIPOS>BOND
     1     1     2 1   
     2     1    29 1   
     3     1    30 1   
     4     2     3 1   
     5     2    41 1   
     6     2    42 1   
     7     3     4 1   
     8     3     5 1   
     9     3    43 1   
    10     4    44 1   
    11     4    45 1   
    12     4    46 1   
    13     5    47 1   
    14     5    48 1   
    15     5    49 1   
    16     6     7 1   
    17     6    11 1   
    18     6    15 1   
    19     6    50 1   
    20     7     8 1   
    21     7     9 1   
    22     7    53 1   
    23     8    54 1   
    24     9    10 1   
    25     9    55 1   
    26     9    56 1   
    27    10    11 1   
    28    11    12 1   
    29    11    57 1   
    30    12    13 1   
    31    13    14 1   
    32    13    58 1   
    33    13    59 1   
    34    14    15 1   
    35    14    60 1   
    36    14    61 1   
    37    15    16 1   
    38    15    62 1   
    39    16    17 1   
    40    17    18 2   
    41    17    19 1   
    42    19    20 1   
    43    19    63 1   
    44    20    27 1   
    45    20    64 1   
    46    20    81 1   
    47    21    22 ar  
    48    21    26 ar  
    49    21    81 1   
    50    22    23 ar  
    51    22    65 1   
    52    23    24 ar  
    53    23    66 1   
    54    24    25 ar  
    55    24    67 1   
    56    25    26 ar  
    57    25    68 1   
    58    26    69 1   
    59    27    28 1   
    60    27    29 1   
    61    27    70 1   
    62    28    71 1   
    63    29    72 1   
    64    29    73 1   
    65    30    31 2   
    66    30    32 2   
    67    30    33 1   
    68    33    34 ar  
    69    33    40 ar  
    70    34    35 ar  
    71    34    74 1   
    72    35    36 ar  
    73    35    75 1   
    74    36    37 1   
    75    36    39 ar  
    76    37    38 1   
    77    38    76 1   
    78    38    77 1   
    79    38    78 1   
    80    39    40 ar  
    81    39    79 1   
    82    40    80 1   
    83    51    81 1   
    84    52    81 1   
@<TRIPOS>SUBSTRUCTURE
     1 52W         1 TEMP              0 ****  ****    0 ROOT
