@<TRIPOS>MOLECULE
molecule
   37    38     1     0     0
SMALL
bcc


@<TRIPOS>ATOM
      1 C1           0.0000     0.0000     0.0000 ca         1 52X      -0.040200
      2 I1           3.8650    -0.0040     1.8360 i          1 52X      -0.104800
      3 N1           1.3800     0.0000     0.0000 na         1 52X      -0.166400
      4 O1           1.0270    -3.6630     5.6770 o          1 52X      -0.606100
      5 C2          -0.9550     0.0010    -1.0120 ca         1 52X      -0.128000
      6 N2           1.0160    -1.4450     5.6170 ns         1 52X      -0.590900
      7 O2          -5.8180    -0.5490     2.3920 os         1 52X      -0.441900
      8 C3          -2.2940     0.0010    -0.6950 ca         1 52X      -0.125000
      9 N3          -4.0770     0.0030     0.9410 ns         1 52X      -0.460100
     10 O3          -3.7540    -1.2970     2.7110 o          1 52X      -0.597000
     11 C4          -2.7090     0.0020     0.6360 ca         1 52X       0.038600
     12 C5          -1.7750     0.0010     1.6550 ca         1 52X      -0.073000
     13 C6          -0.4140     0.0080     1.3440 ca         1 52X      -0.085800
     14 C7           0.8110     0.0090     2.1460 cc         1 52X      -0.106400
     15 C8           1.8430     0.0000     1.2860 cd         1 52X       0.069700
     16 C11          0.8980     0.0040     3.6500 c3         1 52X      -0.029200
     17 C12          0.9310    -1.4400     4.1550 c3         1 52X       0.112000
     18 C14          1.0580    -2.6140     6.2860 c          1 52X       0.655100
     19 C15          1.1440    -2.6200     7.7900 c3         1 52X      -0.172100
     20 C18         -4.5230    -0.6380     2.0390 c          1 52X       0.747100
     21 C33         -6.2290    -1.2660     3.5860 c3         1 52X       0.159700
     22 H2          -0.6440    -0.0000    -2.0500 ha         1 52X       0.132000
     23 HN2          1.0580    -0.5800     6.1180 hn         1 52X       0.308500
     24 H3          -3.0330    -0.0000    -1.4870 ha         1 52X       0.135000
     25 HN3         -4.7190     0.5020     0.3580 hn         1 52X       0.332500
     26 H5          -2.0980     0.0020     2.6900 ha         1 52X       0.166000
     27 H11          1.8000     0.5160     3.9620 hc         1 52X       0.055200
     28 H11A         0.0340     0.5100     4.0630 hc         1 52X       0.055200
     29 H12          1.7950    -1.9470     3.7420 h1         1 52X       0.063200
     30 H12A         0.0290    -1.9530     3.8440 h1         1 52X       0.063200
     31 H15          1.1600    -3.6420     8.1480 hc         1 52X       0.059033
     32 H15A         2.0500    -2.1140     8.1020 hc         1 52X       0.059033
     33 H15B         0.2830    -2.1060     8.2030 hc         1 52X       0.059033
     34 H33         -7.3010    -1.1720     3.7140 h1         1 52X       0.051367
     35 H33A        -5.9670    -2.3120     3.4870 h1         1 52X       0.051367
     36 H33B        -5.7250    -0.8470     4.4490 h1         1 52X       0.051367
     37 HN1          1.9550     0.0000    -0.8190 hn         1 52X       0.304700
@<TRIPOS>BOND
     1    13     1 ar  
     2     1     3 1   
     3     1     5 ar  
     4     2    15 1   
     5    15     3 1   
     6     4    18 2   
     7     8     5 ar  
     8     5    22 1   
     9    18     6 1   
    10     6    17 1   
    11     6    23 1   
    12     7    20 1   
    13     7    21 1   
    14    11     8 ar  
    15     8    24 1   
    16     9    20 1   
    17     9    11 1   
    18     9    25 1   
    19    20    10 2   
    20    12    11 ar  
    21    12    13 ar  
    22    12    26 1   
    23    14    13 1   
    24    16    14 1   
    25    14    15 2   
    26    16    17 1   
    27    16    27 1   
    28    16    28 1   
    29    17    29 1   
    30    17    30 1   
    31    18    19 1   
    32    19    31 1   
    33    19    32 1   
    34    19    33 1   
    35    21    34 1   
    36    21    35 1   
    37    21    36 1   
    38     3    37 1   
@<TRIPOS>SUBSTRUCTURE
     1 52X         1 TEMP              0 ****  ****    0 ROOT
