@<TRIPOS>MOLECULE
52Y
   43    45     1     0     0
SMALL
bcc


@<TRIPOS>ATOM
      1 C1           0.0000     0.0000     0.0000 c3         1 52Y       0.243700
      2 O1           1.4290     0.0000     0.0000 os         1 52Y      -0.305900
      3 C2           2.0460     0.0000     1.2110 ca         1 52Y       0.165100
      4 C3           3.4320     0.0010     1.2830 ca         1 52Y      -0.176500
      5 C4           4.0610     0.0000     2.5100 ca         1 52Y      -0.040500
      6 C5           3.3030     0.0000     3.6790 cp         1 52Y      -0.097000
      7 C6           1.9110    -0.0000     3.6050 ca         1 52Y      -0.040500
      8 C7           1.2880     0.0050     2.3740 ca         1 52Y      -0.176500
      9 C8           3.9760    -0.0000     5.0010 cp         1 52Y       0.063000
     10 C9           5.3670     0.0050     5.0760 ca         1 52Y      -0.128000
     11 C10          5.9910     0.0050     6.3070 ca         1 52Y       0.146900
     12 C11          5.2310    -0.0010     7.4730 ca         1 52Y      -0.202400
     13 C12          3.8450    -0.0060     7.3990 ca         1 52Y      -0.034000
     14 C13          3.2180     0.0000     6.1710 ca         1 52Y      -0.106000
     15 N14          5.8660    -0.0030     8.7220 n          1 52Y       0.183800
     16 C15          6.1540     1.1460     9.3150 c          1 52Y       0.599500
     17 C16          6.8350     0.9640    10.6530 c3         1 52Y      -0.086300
     18 S17          6.9430    -0.8480    10.8260 ss         1 52Y      -0.163700
     19 C18          6.1760    -1.1820     9.3210 c2         1 52Y       0.112200
     20 O19          5.9000     2.2300     8.8360 o          1 52Y      -0.595500
     21 F20          7.3410     0.0110     6.3820 f          1 52Y      -0.123900
     22 C21          5.9190    -2.4530     8.8020 ce         1 52Y      -0.103900
     23 C22          6.2970    -3.6080     9.5340 c          1 52Y       0.729300
     24 C23          5.2750    -2.5900     7.5310 cg         1 52Y       0.215500
     25 N24          4.7480    -2.7070     6.5320 n1         1 52Y      -0.391800
     26 O25          6.0490    -4.8350     9.0320 os         1 52Y      -0.398900
     27 O26          6.8450    -3.4910    10.6150 o          1 52Y      -0.587000
     28 C27          6.4560    -5.9530     9.8230 c3         1 52Y       0.266700
     29 H1          -0.3610     0.8170     0.6130 h1         1 52Y      -0.000967
     30 H2          -0.3610    -0.9400     0.4000 h1         1 52Y      -0.000967
     31 H3          -0.3610     0.1230    -1.0140 h1         1 52Y      -0.000967
     32 H4           4.0210     0.0370     0.3740 ha         1 52Y       0.121000
     33 H5           5.1430     0.0010     2.5630 ha         1 52Y       0.110500
     34 H6           1.3200    -0.0000     4.5130 ha         1 52Y       0.110500
     35 H7           0.2070     0.0450     2.3170 ha         1 52Y       0.121000
     36 H8           5.9580     0.0750     4.1710 ha         1 52Y       0.133000
     37 H9           3.2540    -0.0110     8.3070 ha         1 52Y       0.113000
     38 H10          2.1380     0.0650     6.1170 ha         1 52Y       0.121000
     39 H11          6.6440     1.8190    11.2900 h1         1 52Y       0.102200
     40 H12          7.9000     0.8210    10.5140 h1         1 52Y       0.102200
     41 H13          6.1490    -6.8710     9.3350 h1         1 52Y       0.001700
     42 H14          7.5340    -5.9450     9.9320 h1         1 52Y       0.001700
     43 H15          5.9930    -5.8920    10.8000 h1         1 52Y       0.001700
@<TRIPOS>BOND
     1     1     2 1   
     2     1    29 1   
     3     1    30 1   
     4     1    31 1   
     5     2     3 1   
     6     3     4 ar  
     7     3     8 ar  
     8     4     5 ar  
     9     4    32 1   
    10     5     6 ar  
    11     5    33 1   
    12     6     7 ar  
    13     6     9 1   
    14     7     8 ar  
    15     7    34 1   
    16     8    35 1   
    17     9    10 ar  
    18     9    14 ar  
    19    10    11 ar  
    20    10    36 1   
    21    11    12 ar  
    22    11    21 1   
    23    12    13 ar  
    24    12    15 1   
    25    13    14 ar  
    26    13    37 1   
    27    14    38 1   
    28    15    16 1   
    29    15    19 1   
    30    16    17 1   
    31    16    20 2   
    32    17    18 1   
    33    17    39 1   
    34    17    40 1   
    35    18    19 1   
    36    19    22 2   
    37    22    23 1   
    38    22    24 1   
    39    23    26 1   
    40    23    27 2   
    41    24    25 3   
    42    26    28 1   
    43    28    41 1   
    44    28    42 1   
    45    28    43 1   
@<TRIPOS>SUBSTRUCTURE
     1 52Y         1 TEMP              0 ****  ****    0 ROOT
