@<TRIPOS>MOLECULE
molecule
   43    45     1     0     0
SMALL
bcc


@<TRIPOS>ATOM
      1 C1           0.0000     0.0000     0.0000 c3         1 52Y       0.110700
      2 O1           1.4290     0.0000     0.0000 os         1 52Y      -0.322900
      3 C2           2.0460     0.0000     1.2110 ca         1 52Y       0.197100
      4 C3           3.4320     0.0010     1.2830 ca         1 52Y      -0.191000
      5 C4           4.0610     0.0000     2.5100 ca         1 52Y      -0.094000
      6 C5           3.3030     0.0000     3.6790 cp         1 52Y      -0.128000
      7 C6           1.9110    -0.0000     3.6050 ca         1 52Y      -0.094000
      8 C7           1.2880     0.0050     2.3740 ca         1 52Y      -0.191000
      9 C8           3.9760    -0.0000     5.0010 cp         1 52Y       0.044000
     10 C9           5.3670     0.0050     5.0760 ca         1 52Y      -0.159000
     11 C10          5.9910     0.0050     6.3070 ca         1 52Y       0.167900
     12 C11          5.2310    -0.0010     7.4730 ca         1 52Y      -0.061400
     13 C12          3.8450    -0.0060     7.3990 ca         1 52Y      -0.068000
     14 C13          3.2180     0.0000     6.1710 ca         1 52Y      -0.130000
     15 N14          5.8660    -0.0030     8.7220 n          1 52Y      -0.267200
     16 C15          6.1540     1.1460     9.3150 c          1 52Y       0.730500
     17 C16          6.8350     0.9640    10.6530 c3         1 52Y      -0.165300
     18 S17          6.9430    -0.8480    10.8260 ss         1 52Y      -0.061700
     19 C18          6.1760    -1.1820     9.3210 c2         1 52Y       0.240200
     20 O19          5.9000     2.2300     8.8360 o          1 52Y      -0.548500
     21 F20          7.3410     0.0110     6.3820 f          1 52Y      -0.129900
     22 C21          5.9190    -2.4530     8.8020 ce         1 52Y      -0.152900
     23 C22          6.2970    -3.6080     9.5340 c          1 52Y       0.675300
     24 C23          5.2750    -2.5900     7.5310 cg         1 52Y       0.221500
     25 N24          4.7680    -2.7180     6.5230 n1         1 52Y      -0.368800
     26 O25          6.0490    -4.8350     9.0320 os         1 52Y      -0.404900
     27 O26          6.8450    -3.4910    10.6150 o          1 52Y      -0.565000
     28 C27          6.4560    -5.9530     9.8230 c3         1 52Y       0.119700
     29 H1          -0.1760     1.0360    -0.2650 h1         1 52Y       0.052367
     30 H2          -0.1830    -0.3270    -1.0160 h1         1 52Y       0.052367
     31 H3          -0.5690    -0.3690     0.8450 h1         1 52Y       0.052367
     32 H4           4.1850     0.0240     0.5040 ha         1 52Y       0.155000
     33 H5           5.1060     0.0850     2.7840 ha         1 52Y       0.143500
     34 H6           1.5600    -0.0430     4.6290 ha         1 52Y       0.143500
     35 H7           0.2910    -0.1890     2.7520 ha         1 52Y       0.155000
     36 H8           5.9570     0.2250     4.1940 ha         1 52Y       0.156000
     37 H9           3.3550    -0.1050     8.3600 ha         1 52Y       0.146000
     38 H10          2.1520     0.1840     6.1130 ha         1 52Y       0.146000
     39 H11          7.8250     1.3410    10.8810 h1         1 52Y       0.117700
     40 H12          6.3850     1.2760    11.5870 h1         1 52Y       0.117700
     41 H13          7.4710    -5.7320    10.1300 h1         1 52Y       0.053367
     42 H14          6.7800    -6.7410     9.1530 h1         1 52Y       0.053367
     43 H15          5.6820    -6.4640    10.3830 h1         1 52Y       0.053367
@<TRIPOS>BOND
     1     1     2 1   
     2     8     7 ar  
     3     8     3 ar  
     4     2     3 1   
     5     7     6 ar  
     6     3     4 ar  
     7    21    11 1   
     8    10    11 ar  
     9    10     9 ar  
    10     6     9 1   
    11     6     5 ar  
    12     4     5 ar  
    13    11    12 ar  
    14     9    14 ar  
    15    20    16 2   
    16    12    15 1   
    17    12    13 ar  
    18    16    15 1   
    19    16    17 1   
    20    14    13 ar  
    21    15    19 1   
    22    17    18 1   
    23    25    24 3   
    24    19    18 1   
    25    19    22 2   
    26    24    22 1   
    27    22    23 1   
    28    23    27 2   
    29    23    26 1   
    30    26    28 1   
    31     1    29 1   
    32     1    30 1   
    33     1    31 1   
    34     4    32 1   
    35     5    33 1   
    36     7    34 1   
    37     8    35 1   
    38    10    36 1   
    39    13    37 1   
    40    14    38 1   
    41    17    39 1   
    42    17    40 1   
    43    28    41 1   
    44    28    42 1   
    45    28    43 1   
@<TRIPOS>SUBSTRUCTURE
     1 52Y         1 TEMP              0 ****  ****    0 ROOT
