@<TRIPOS>MOLECULE
530
   40    43     1     0     0
SMALL
bcc


@<TRIPOS>ATOM
      1 F25          0.0000     0.0000     0.0000 f          1 530      -0.123900
      2 C21          1.3520     0.0000     0.0000 ca         1 530       0.128900
      3 C20          2.0420     0.0000     1.2000 ca         1 530      -0.134000
      4 C19          3.4240    -0.0000     1.2030 ca         1 530      -0.056000
      5 C22          2.0430    -0.0040    -1.1990 ca         1 530      -0.158000
      6 C23          3.4270    -0.0040    -1.1990 ca         1 530       0.128900
      7 F24          4.1020    -0.0090    -2.3690 f          1 530      -0.116900
      8 C12          4.1200     0.0010     0.0050 ca         1 530       0.082100
      9 O11          5.4800     0.0010     0.0060 os         1 530      -0.312400
     10 C3           6.1160     1.1830    -0.1780 ca         1 530       0.863300
     11 N2           5.3930     2.2940    -0.2420 nb         1 530      -0.740000
     12 N4           7.4320     1.1870    -0.2810 nb         1 530      -0.656000
     13 C6           8.0900     2.3290    -0.4610 ca         1 530       0.341800
     14 N7           9.4030     2.6650    -0.6010 na         1 530       0.351200
     15 N8           9.5140     4.0490    -0.7670 nc         1 530      -0.740100
     16 C9           8.3290     4.6000    -0.7380 cd         1 530       0.549800
     17 C5           7.3510     3.5310    -0.5410 ca         1 530      -0.570500
     18 C1           5.9630     3.4730    -0.4210 ca         1 530       0.576200
     19 N10          8.0480     5.9610    -0.8700 nu         1 530      -0.445200
     20 C13          9.1390     6.9200    -1.0650 c3         1 530       0.140500
     21 C18          8.7010     8.3020    -0.5710 c3         1 530      -0.084400
     22 C17          9.8170     9.3120    -0.8500 c3         1 530       0.220900
     23 O16         10.1120     9.3210    -2.2490 os         1 530      -0.409600
     24 C15         10.5720     8.0670    -2.7570 c3         1 530       0.220900
     25 C14          9.4850     7.0070    -2.5540 c3         1 530      -0.084400
     26 H20          1.4990    -0.0010     2.1370 ha         1 530       0.124000
     27 H19          3.9640     0.0020     2.1430 ha         1 530       0.122000
     28 H22          1.5010    -0.0060    -2.1370 ha         1 530       0.137000
     29 HN7         10.1690     2.0210    -0.5880 hn         1 530       0.156700
     30 H1           5.3650     4.3740    -0.4720 h4         1 530      -0.022900
     31 HN10         7.1010     6.2830    -0.8320 hn         1 530       0.295800
     32 H13         10.0130     6.5990    -0.5100 h1         1 530       0.053700
     33 H18          8.5090     8.2600     0.4940 hc         1 530       0.029450
     34 H18A         7.8020     8.6040    -1.0950 hc         1 530       0.029450
     35 H17         10.7050     9.0300    -0.2970 h1         1 530       0.009950
     36 H17A         9.4930    10.3000    -0.5440 h1         1 530       0.009950
     37 H15         10.7880     8.1640    -3.8140 h1         1 530       0.009950
     38 H15A        11.4680     7.7700    -2.2250 h1         1 530       0.009950
     39 H14          9.8500     6.0470    -2.8970 hc         1 530       0.029450
     40 H14A         8.6010     7.2860    -3.1140 hc         1 530       0.029450
@<TRIPOS>BOND
     1     1     2 1   
     2     2     3 ar  
     3     2     5 ar  
     4     3     4 ar  
     5     3    26 1   
     6     4     8 ar  
     7     4    27 1   
     8     5     6 ar  
     9     5    28 1   
    10     6     7 1   
    11     6     8 ar  
    12     8     9 1   
    13     9    10 1   
    14    10    11 ar  
    15    10    12 ar  
    16    11    18 ar  
    17    12    13 ar  
    18    13    14 1   
    19    13    17 ar  
    20    14    15 1   
    21    14    29 1   
    22    15    16 2   
    23    16    17 1   
    24    16    19 1   
    25    17    18 ar  
    26    18    30 1   
    27    19    20 1   
    28    19    31 1   
    29    20    21 1   
    30    20    25 1   
    31    20    32 1   
    32    21    22 1   
    33    21    33 1   
    34    21    34 1   
    35    22    23 1   
    36    22    35 1   
    37    22    36 1   
    38    23    24 1   
    39    24    25 1   
    40    24    37 1   
    41    24    38 1   
    42    25    39 1   
    43    25    40 1   
@<TRIPOS>SUBSTRUCTURE
     1 530         1 TEMP              0 ****  ****    0 ROOT
