@<TRIPOS>MOLECULE
molecule
   40    43     1     0     0
SMALL
bcc


@<TRIPOS>ATOM
      1 F25          0.0000     0.0000     0.0000 f          1 530      -0.131900
      2 C21          1.3520     0.0000     0.0000 ca         1 530       0.164900
      3 C20          2.0420     0.0000     1.2000 ca         1 530      -0.177000
      4 C19          3.4240    -0.0000     1.2030 ca         1 530      -0.071000
      5 C22          2.0430    -0.0040    -1.1990 ca         1 530      -0.206000
      6 C23          3.4270    -0.0040    -1.1990 ca         1 530       0.167900
      7 F24          4.1020    -0.0090    -2.3690 f          1 530      -0.120900
      8 C12          4.1200     0.0010     0.0050 ca         1 530       0.062100
      9 O11          5.4800     0.0010     0.0060 os         1 530      -0.318400
     10 C3           6.1160     1.1830    -0.1780 ca         1 530       0.947300
     11 N2           5.3930     2.2940    -0.2420 nb         1 530      -0.831000
     12 N4           7.4320     1.1870    -0.2810 nb         1 530      -0.783000
     13 C6           8.0900     2.3290    -0.4610 ca         1 530       0.559800
     14 N7           9.4030     2.6650    -0.6010 na         1 530      -0.132800
     15 N8           9.5140     4.0490    -0.7670 nc         1 530      -0.582100
     16 C9           8.3290     4.6000    -0.7380 cd         1 530       0.649800
     17 C5           7.3510     3.5310    -0.5410 ca         1 530      -0.551500
     18 C1           5.9630     3.4730    -0.4210 ca         1 530       0.568200
     19 N10          8.0480     5.9610    -0.8700 nu         1 530      -0.866200
     20 C13          9.1390     6.9200    -1.0650 c3         1 530       0.248500
     21 C18          8.7010     8.3020    -0.5710 c3         1 530      -0.135400
     22 C17          9.8170     9.3120    -0.8500 c3         1 530       0.140900
     23 O16         10.1120     9.3210    -2.2490 os         1 530      -0.421600
     24 C15         10.5720     8.0670    -2.7570 c3         1 530       0.140900
     25 C14          9.4850     7.0070    -2.5540 c3         1 530      -0.135400
     26 H20          1.4990    -0.0010     2.1370 ha         1 530       0.155000
     27 H19          3.9640     0.0020     2.1430 ha         1 530       0.157000
     28 H22          1.5010    -0.0060    -2.1370 ha         1 530       0.165000
     29 HN7         10.1690     2.0210    -0.5880 hn         1 530       0.344700
     30 H1           5.3650     4.3740    -0.4720 h4         1 530       0.028100
     31 HN10         7.1010     6.2830    -0.8320 hn         1 530       0.450800
     32 H13         10.0130     6.5990    -0.5100 h1         1 530       0.074700
     33 H18          8.5090     8.2600     0.4940 hc         1 530       0.058700
     34 H18A         7.8020     8.6040    -1.0950 hc         1 530       0.058700
     35 H17         10.7050     9.0300    -0.2970 h1         1 530       0.050950
     36 H17A         9.4930    10.3000    -0.5440 h1         1 530       0.050950
     37 H15         10.7880     8.1640    -3.8140 h1         1 530       0.050950
     38 H15A        11.4680     7.7700    -2.2250 h1         1 530       0.050950
     39 H14          9.8500     6.0470    -2.8970 hc         1 530       0.058700
     40 H14A         8.6010     7.2860    -3.1140 hc         1 530       0.058700
@<TRIPOS>BOND
     1     1     2 1
     2     2     3 ar
     3     2     5 ar
     4     3     4 ar
     5     4     8 ar
     6     5     6 ar
     7     6     7 1
     8     6     8 ar
     9     8     9 1
    10     9    10 1
    11    10    11 ar
    12    10    12 ar
    13    11    18 ar
    14    12    13 ar
    15    13    14 1
    16    13    17 ar
    17    14    15 1
    18    15    16 2
    19    16    17 1
    20    16    19 1
    21    17    18 ar
    22    19    20 1
    23    20    21 1
    24    20    25 1
    25    21    22 1
    26    22    23 1
    27    23    24 1
    28    24    25 1
    29     3    26 1
    30     4    27 1
    31     5    28 1
    32    14    29 1
    33    18    30 1
    34    19    31 1
    35    20    32 1
    36    21    33 1
    37    21    34 1
    38    22    35 1
    39    22    36 1
    40    24    37 1
    41    24    38 1
    42    25    39 1
    43    25    40 1
@<TRIPOS>SUBSTRUCTURE
     1 530         1 TEMP              0 ****  ****    0 ROOT
