@<TRIPOS>MOLECULE
molecule
   35    36     1     0     0
SMALL
bcc


@<TRIPOS>ATOM
      1 C1           0.0000     0.0000     0.0000 c3         1 531       0.210100
      2 C2           1.5070     0.0000     0.0000 ca         1 531      -0.080300
      3 C3           2.1980     0.0000     1.1970 ca         1 531      -0.117000
      4 C4           3.5810    -0.0000     1.1960 ca         1 531      -0.129500
      5 C5           4.2710     0.0000    -0.0010 ca         1 531      -0.127000
      6 C6           3.5810     0.0010    -1.1980 ca         1 531      -0.129500
      7 C7           2.1980    -0.0060    -1.1980 ca         1 531      -0.117000
      8 N8          -0.4890     1.3850     0.0000 n3         1 531      -0.727600
      9 C9          -1.9380     1.4310    -0.2370 c3         1 531       0.175800
     10 C10         -2.3880     2.8870    -0.3760 c3         1 531      -0.168700
     11 C11         -2.0380     3.6470     0.9060 c3         1 531      -0.069400
     12 C12         -0.5310     3.5430     1.1570 c3         1 531      -0.076400
     13 C13         -0.1350     2.0680     1.2510 c3         1 531       0.156800
     14 C14         -3.8780     2.9350    -0.5980 c          1 531       0.566100
     15 O15         -4.5850     2.0750    -0.1320 o          1 531      -0.527100
     16 C16         -4.4840     4.0560    -1.4030 c3         1 531      -0.194100
     17 H12         -0.3610    -0.5110     0.8840 h1         1 531       0.041200
     18 H11         -0.3610    -0.5100    -0.8850 h1         1 531       0.041200
     19 H31          1.6570    -0.0000     2.1350 ha         1 531       0.131000
     20 H41          4.1230    -0.0000     2.1340 ha         1 531       0.128500
     21 H51          5.3550     0.0030    -0.0010 ha         1 531       0.128000
     22 H61          4.1220    -0.0010    -2.1360 ha         1 531       0.128500
     23 H71          1.6560    -0.0060    -2.1360 ha         1 531       0.131000
     24 H91         -2.4540     0.9730     0.5980 h1         1 531       0.045700
     25 H92         -2.1700     0.8950    -1.1500 h1         1 531       0.045700
     26 H101        -1.8770     3.3430    -1.2150 hc         1 531       0.076700
     27 H112        -2.3150     4.6890     0.7950 hc         1 531       0.046700
     28 H111        -2.5740     3.2120     1.7420 hc         1 531       0.046700
     29 H122         0.0040     4.0090     0.3380 hc         1 531       0.050700
     30 H121        -0.2850     4.0420     2.0870 hc         1 531       0.050700
     31 H132        -0.6630     1.6060     2.0760 h1         1 531       0.040200
     32 H131         0.9340     1.9920     1.4110 h1         1 531       0.040200
     33 H161        -4.4220     4.9790    -0.8400 hc         1 531       0.061367
     34 H163        -3.9430     4.1650    -2.3350 hc         1 531       0.061367
     35 H162        -5.5220     3.8290    -1.6130 hc         1 531       0.061367
@<TRIPOS>BOND
     1     7     6 ar  
     2     7     2 ar  
     3     6     5 ar  
     4    13    12 1   
     5    13     8 1   
     6    12    11 1   
     7    11    10 1   
     8     1     2 1   
     9     1     8 1   
    10     2     3 ar  
    11     8     9 1   
    12     5     4 ar  
    13     9    10 1   
    14    16    14 1   
    15    10    14 1   
    16     3     4 ar  
    17    14    15 2   
    18     1    17 1   
    19     1    18 1   
    20     3    19 1   
    21     4    20 1   
    22     5    21 1   
    23     6    22 1   
    24     7    23 1   
    25     9    24 1   
    26     9    25 1   
    27    10    26 1   
    28    11    27 1   
    29    11    28 1   
    30    12    29 1   
    31    12    30 1   
    32    13    31 1   
    33    13    32 1   
    34    16    33 1   
    35    16    34 1   
    36    16    35 1   
@<TRIPOS>SUBSTRUCTURE
     1 531         1 TEMP              0 ****  ****    0 ROOT
