@<TRIPOS>MOLECULE
molecule
   42    45     1     0     0
SMALL
bcc


@<TRIPOS>ATOM
      1 C1           0.0000     0.0000     0.0000 c3         1 532       0.073300
      2 N1           1.4650     0.0000     0.0000 n          1 532      -0.428300
      3 O1           1.8610    -0.0010     2.2640 o          1 532      -0.505500
      4 S1           5.3080     3.1310     2.4840 ss         1 532      -0.171800
      5 C2           2.2340     0.0000     1.1100 c          1 532       0.707500
      6 N2           3.5160     0.0030    -0.8620 n2         1 532      -0.526900
      7 C3           3.6620     0.0020     0.6020 c3         1 532       0.176800
      8 N3           1.7370    -0.0100    -2.4060 nz         1 532      -0.725600
      9 C4           2.2460    -0.0040    -1.1290 c2         1 532       0.453800
     10 N4           6.9870    -4.5050    -2.6540 nb         1 532      -0.688000
     11 C5           4.3870    -1.2380     1.0600 ca         1 532      -0.097300
     12 C6           4.4090    -1.5670     2.4030 ca         1 532      -0.099000
     13 C7           5.0740    -2.7020     2.8310 ca         1 532      -0.111000
     14 C8           5.7180    -3.5140     1.9190 ca         1 532      -0.096000
     15 C9           5.6980    -3.1870     0.5640 cp         1 532      -0.021000
     16 C10          5.0230    -2.0440     0.1380 ca         1 532      -0.108000
     17 C11          6.3890    -4.0530    -0.4220 cp         1 532      -0.173300
     18 C12          7.0640    -5.2050    -0.0050 ca         1 532      -0.078000
     19 C13          7.6940    -5.9800    -0.9630 ca         1 532      -0.241300
     20 C14          7.6330    -5.5960    -2.2910 ca         1 532       0.432200
     21 C15          6.3740    -3.7350    -1.7780 ca         1 532       0.422200
     22 C16          4.3860     1.2400     1.0620 cc         1 532      -0.083300
     23 C17          5.1330     2.0270     0.2040 cc         1 532      -0.159000
     24 C18          5.7090     3.0880     0.7720 cd         1 532      -0.048100
     25 C19          4.3530     1.6620     2.3270 cd         1 532      -0.038100
     26 H1          -0.3610     0.0060     1.0210 h1         1 532       0.069700
     27 H1A         -0.3610    -0.8870    -0.5060 h1         1 532       0.069700
     28 H1B         -0.3610     0.8820    -0.5160 h1         1 532       0.069700
     29 HN3          1.1030     0.7570    -2.5160 hn         1 532       0.480800
     30 HN3A         2.4850     0.0780    -3.0650 hn         1 532       0.480800
     31 H6           3.9050    -0.9330     3.1230 ha         1 532       0.155000
     32 H7           5.0880    -2.9560     3.8840 ha         1 532       0.151000
     33 H8           6.2390    -4.4020     2.2560 ha         1 532       0.148000
     34 H10          5.0040    -1.7850    -0.9140 ha         1 532       0.135000
     35 H12          7.0960    -5.4820     1.0420 ha         1 532       0.145000
     36 H13          8.2270    -6.8790    -0.6770 ha         1 532       0.151000
     37 H14          8.1240    -6.2010    -3.0430 h4         1 532       0.034100
     38 H15          5.8540    -2.8460    -2.1150 h4         1 532       0.010100
     39 H17          5.2420     1.8000    -0.8500 ha         1 532       0.157000
     40 H18          6.3290     3.8130     0.2580 h4         1 532       0.185000
     41 H19          4.0870     1.8250     3.3640 h4         1 532       0.212000
     42 H33          1.2900    -0.8880    -2.5830 hn         1 532       0.480800
@<TRIPOS>BOND
     1     1     2 1   
     2     2     5 1   
     3     2     9 1   
     4     3     5 2   
     5     4    24 1   
     6     4    25 1   
     7     5     7 1   
     8     6     7 1   
     9     6     9 2   
    10     7    11 1   
    11     7    22 1   
    12     8     9 1   
    13    10    20 ar  
    14    10    21 ar  
    15    11    12 ar  
    16    11    16 ar  
    17    12    13 ar  
    18    13    14 ar  
    19    14    15 ar  
    20    15    16 ar  
    21    15    17 1   
    22    17    18 ar  
    23    17    21 ar  
    24    18    19 ar  
    25    19    20 ar  
    26    22    23 1   
    27    22    25 2   
    28    23    24 2   
    29     1    26 1   
    30     1    27 1   
    31     1    28 1   
    32     8    29 1   
    33     8    30 1   
    34    12    31 1   
    35    13    32 1   
    36    14    33 1   
    37    16    34 1   
    38    18    35 1   
    39    19    36 1   
    40    20    37 1   
    41    21    38 1   
    42    23    39 1   
    43    24    40 1   
    44    25    41 1   
    45    42     8 1   
@<TRIPOS>SUBSTRUCTURE
     1 532         1 TEMP              0 ****  ****    0 ROOT
