@<TRIPOS>MOLECULE
molecule
   46    49     1     0     0
SMALL
bcc


@<TRIPOS>ATOM
      1 F23          0.0000     0.0000     0.0000 f          1 533      -0.135900
      2 C19          1.3510     0.0000     0.0000 ca         1 533       0.127900
      3 C18          2.0420     0.0000     1.2000 ca         1 533      -0.146000
      4 C17          3.4240    -0.0000     1.2040 ca         1 533      -0.146000
      5 C20          2.0440    -0.0060    -1.1990 ca         1 533      -0.180000
      6 C21          3.4260    -0.0070    -1.1990 ca         1 533       0.143900
      7 F22          4.1020    -0.0120    -2.3690 f          1 533      -0.124900
      8 C16          4.1210     0.0000     0.0050 ca         1 533       0.091100
      9 O15          5.4800    -0.0010     0.0070 os         1 533      -0.203200
     10 C12          6.1160    -0.1200     1.2020 cc         1 533      -0.035100
     11 C11          6.0290    -1.3300     1.9320 c          1 533       0.683700
     12 O14          5.3800    -2.2540     1.4730 o          1 533      -0.612500
     13 N10          6.6450    -1.4870     3.1170 n          1 533      -0.409300
     14 C24          6.5220    -2.7610     3.8300 c3         1 533       0.085300
     15 C9           7.3850    -0.4730     3.6680 ca         1 533       0.641200
     16 N5           7.9990    -0.6150     4.8370 nb         1 533      -0.840000
     17 C13          6.8420     0.9220     1.6930 cd         1 533      -0.016200
     18 C8           7.5060     0.7560     2.9840 ca         1 533      -0.434400
     19 C6           8.2660     1.7780     3.5620 ca         1 533       0.559200
     20 N7           8.8420     1.5500     4.7300 nb         1 533      -0.820000
     21 C4           8.7080     0.3810     5.3460 ca         1 533       0.987900
     22 N1           9.3310     0.1970     6.5650 nu         1 533      -0.884900
     23 C2          10.1230     1.2800     7.1530 c3         1 533       0.226500
     24 C26         11.5440     1.2410     6.5850 c3         1 533      -0.111100
     25 C3          10.1760     1.1070     8.6720 c3         1 533       0.062300
     26 N25          8.8310     1.2640     9.2290 na         1 533       0.297900
     27 N30          7.9770     0.3130     9.4010 nc         1 533      -0.580800
     28 C29          6.8910     0.8340     9.9170 cd         1 533       0.509900
     29 N28          7.1170     2.1410    10.0550 nd         1 533      -0.388000
     30 N27          8.3120     2.3730     9.6300 nc         1 533      -0.201800
     31 H18          1.4990    -0.0000     2.1370 ha         1 533       0.151000
     32 H17          3.9630     0.0030     2.1430 ha         1 533       0.148000
     33 H20          1.5020    -0.0090    -2.1370 ha         1 533       0.164000
     34 H24          6.0180    -2.5990     4.7750 h1         1 533       0.064367
     35 H24A         7.5080    -3.1700     4.0120 h1         1 533       0.064367
     36 H24B         5.9480    -3.4570     3.2300 h1         1 533       0.064367
     37 H13          7.1190     1.7430     1.0430 ha         1 533       0.159000
     38 H6           8.3800     2.7330     3.0650 h4         1 533       0.040100
     39 HN1          9.2810    -0.6910     7.0230 hn         1 533       0.468800
     40 H2           9.6660     2.2330     6.9140 h1         1 533       0.102700
     41 H26         11.9620     0.2520     6.7280 hc         1 533       0.051700
     42 H26A        11.5160     1.4720     5.5270 hc         1 533       0.051700
     43 H26B        12.1580     1.9700     7.0990 hc         1 533       0.051700
     44 H3          10.5520     0.1190     8.9100 h1         1 533       0.090200
     45 H3A         10.8330     1.8550     9.0980 h1         1 533       0.090200
     46 H29          5.9840     0.3050    10.1810 h5         1 533       0.090100
@<TRIPOS>BOND
     1     1     2 1   
     2     2     3 ar  
     3     2     5 ar  
     4     3     4 ar  
     5     4     8 ar  
     6     5     6 ar  
     7     6     7 1   
     8     6     8 ar  
     9     8     9 1   
    10     9    10 1   
    11    10    11 1   
    12    10    17 2   
    13    11    12 2   
    14    11    13 1   
    15    13    14 1   
    16    13    15 1   
    17    15    16 ar  
    18    15    18 ar  
    19    16    21 ar  
    20    17    18 1   
    21    18    19 ar  
    22    19    20 ar  
    23    20    21 ar  
    24    21    22 1   
    25    22    23 1   
    26    23    24 1   
    27    23    25 1   
    28    25    26 1   
    29    26    27 1   
    30    26    30 1   
    31    27    28 2   
    32    28    29 1   
    33    29    30 2   
    34     3    31 1   
    35     4    32 1   
    36     5    33 1   
    37    14    34 1   
    38    14    35 1   
    39    14    36 1   
    40    17    37 1   
    41    19    38 1   
    42    22    39 1   
    43    23    40 1   
    44    24    41 1   
    45    24    42 1   
    46    24    43 1   
    47    25    44 1   
    48    25    45 1   
    49    28    46 1   
@<TRIPOS>SUBSTRUCTURE
     1 533         1 TEMP              0 ****  ****    0 ROOT
