@<TRIPOS>MOLECULE
533
   46    49     1     0     0
SMALL
bcc


@<TRIPOS>ATOM
      1 F23          0.0000     0.0000     0.0000 f          1 533      -0.124900
      2 C19          1.3510     0.0000     0.0000 ca         1 533       0.094900
      3 C18          2.0420     0.0000     1.2000 ca         1 533      -0.103000
      4 C17          3.4240    -0.0000     1.2040 ca         1 533      -0.136000
      5 C20          2.0440    -0.0060    -1.1990 ca         1 533      -0.134000
      6 C21          3.4260    -0.0070    -1.1990 ca         1 533       0.105900
      7 F22          4.1020    -0.0120    -2.3690 f          1 533      -0.117900
      8 C16          4.1210     0.0000     0.0050 ca         1 533       0.114100
      9 O15          5.4800    -0.0010     0.0070 os         1 533      -0.174200
     10 C12          6.1160    -0.1200     1.2020 cc         1 533      -0.036100
     11 C11          6.0290    -1.3300     1.9320 c          1 533       0.586700
     12 O14          5.3800    -2.2540     1.4730 o          1 533      -0.660500
     13 N10          6.6450    -1.4870     3.1170 n          1 533       0.013700
     14 C24          6.5220    -2.7610     3.8300 c3         1 533       0.039300
     15 C9           7.3850    -0.4730     3.6680 ca         1 533       0.450200
     16 N5           7.9990    -0.6150     4.8370 nb         1 533      -0.731000
     17 C13          6.8420     0.9220     1.6930 cd         1 533       0.012800
     18 C8           7.5060     0.7560     2.9840 ca         1 533      -0.435400
     19 C6           8.2660     1.7780     3.5620 ca         1 533       0.559200
     20 N7           8.8420     1.5500     4.7300 nb         1 533      -0.723000
     21 C4           8.7080     0.3810     5.3460 ca         1 533       0.763900
     22 N1           9.3310     0.1970     6.5650 nu         1 533      -0.478900
     23 C2          10.1230     1.2800     7.1530 c3         1 533       0.114500
     24 C26         11.5440     1.2410     6.5850 c3         1 533      -0.011100
     25 C3          10.1760     1.1070     8.6720 c3         1 533      -0.020700
     26 N25          8.8310     1.2640     9.2290 na         1 533       0.713900
     27 N30          7.9770     0.3130     9.4010 nc         1 533      -0.702800
     28 C29          6.8910     0.8340     9.9170 cd         1 533       0.538900
     29 N28          7.1170     2.1410    10.0550 nd         1 533      -0.351000
     30 N27          8.3120     2.3730     9.6300 nc         1 533      -0.356800
     31 H18          1.4990    -0.0000     2.1370 ha         1 533       0.120000
     32 H17          3.9630     0.0030     2.1430 ha         1 533       0.122000
     33 H20          1.5020    -0.0090    -2.1370 ha         1 533       0.135000
     34 H24          6.0180    -2.5990     4.7750 h1         1 533       0.034367
     35 H24A         7.5080    -3.1700     4.0120 h1         1 533       0.034367
     36 H24B         5.9480    -3.4570     3.2300 h1         1 533       0.034367
     37 H13          7.1190     1.7430     1.0430 ha         1 533       0.126000
     38 H6           8.3800     2.7330     3.0650 h4         1 533      -0.010900
     39 HN1          9.2810    -0.6910     7.0230 hn         1 533       0.314800
     40 H2           9.6660     2.2330     6.9140 h1         1 533       0.074700
     41 H26         11.9620     0.2520     6.7280 hc         1 533       0.017700
     42 H26A        11.5160     1.4720     5.5270 hc         1 533       0.017700
     43 H26B        12.1580     1.9700     7.0990 hc         1 533       0.017700
     44 H3          10.5520     0.1190     8.9100 h1         1 533       0.057200
     45 H3A         10.8330     1.8550     9.0980 h1         1 533       0.057200
     46 H29          5.9840     0.3050    10.1810 h5         1 533       0.037100
@<TRIPOS>BOND
     1     1     2 1   
     2     2     3 ar  
     3     2     5 ar  
     4     3     4 ar  
     5     3    31 1   
     6     4     8 ar  
     7     4    32 1   
     8     5     6 ar  
     9     5    33 1   
    10     6     7 1   
    11     6     8 ar  
    12     8     9 1   
    13     9    10 1   
    14    10    11 1   
    15    10    17 2   
    16    11    12 2   
    17    11    13 1   
    18    13    14 1   
    19    13    15 1   
    20    14    34 1   
    21    14    35 1   
    22    14    36 1   
    23    15    16 ar  
    24    15    18 ar  
    25    16    21 ar  
    26    17    18 1   
    27    17    37 1   
    28    18    19 ar  
    29    19    20 ar  
    30    19    38 1   
    31    20    21 ar  
    32    21    22 1   
    33    22    23 1   
    34    22    39 1   
    35    23    24 1   
    36    23    25 1   
    37    23    40 1   
    38    24    41 1   
    39    24    42 1   
    40    24    43 1   
    41    25    26 1   
    42    25    44 1   
    43    25    45 1   
    44    26    27 1   
    45    26    30 1   
    46    27    28 2   
    47    28    29 1   
    48    28    46 1   
    49    29    30 2   
@<TRIPOS>SUBSTRUCTURE
     1 533         1 TEMP              0 ****  ****    0 ROOT
