@<TRIPOS>MOLECULE
534
   66    70     1     0     0
SMALL
bcc


@<TRIPOS>ATOM
      1 C26          0.0000     0.0000     0.0000 c3         1 534       0.006400
      2 C25          1.5300     0.0000     0.0000 c3         1 534       0.001600
      3 C27          2.0400     0.0000     1.4430 c3         1 534       0.006400
      4 C12          2.0320    -1.2300    -0.7110 ca         1 534      -0.073300
      5 C13          2.8270    -1.1000    -1.8350 ca         1 534      -0.110500
      6 C14          3.2910    -2.2220    -2.4910 ca         1 534      -0.064500
      7 C11          1.7010    -2.4850    -0.2330 ca         1 534      -0.110500
      8 C10          2.1580    -3.6150    -0.8800 ca         1 534      -0.064500
      9 C5           2.9550    -3.4900    -2.0170 cp         1 534      -0.154500
     10 C3           3.4480    -4.7000    -2.7170 cp         1 534       0.359500
     11 N1           3.4370    -4.7550    -4.0430 nb         1 534      -0.541000
     12 C2           3.8780    -5.8360    -4.6640 ca         1 534       0.286900
     13 C1           4.3500    -6.9120    -3.9370 ca         1 534       0.286900
     14 N2           4.3670    -6.8720    -2.6150 nb         1 534      -0.571000
     15 C4           3.9350    -5.7920    -1.9800 ca         1 534       0.368900
     16 N3           3.9550    -5.7430    -0.5930 nh         1 534      -0.504300
     17 C9           5.3340    -5.7170    -0.0880 c3         1 534       0.133800
     18 C8           5.3160    -5.4810     1.4250 c3         1 534       0.233800
     19 C6           3.1980    -6.8620    -0.0160 c3         1 534       0.133800
     20 C7           3.0920    -6.6740     1.5010 c3         1 534       0.233800
     21 N4           4.4470    -6.4930     2.0450 n3         1 534      -0.535500
     22 S1           4.9790    -7.4050     3.3210 sy         1 534       1.054200
     23 O1           4.1950    -8.5900     3.3210 o          1 534      -0.587800
     24 O2           6.3980    -7.4120     3.2460 o          1 534      -0.587800
     25 C15          4.5630    -6.5340     4.7950 ca         1 534      -0.149500
     26 C20          3.3450    -6.7570     5.4070 ca         1 534      -0.007000
     27 C16          5.4570    -5.6310     5.3380 ca         1 534      -0.004000
     28 C17          5.1370    -4.9440     6.4960 ca         1 534      -0.121000
     29 C18          3.9210    -5.1560     7.1140 ca         1 534      -0.059000
     30 C19          3.0180    -6.0680     6.5730 cp         1 534      -0.027000
     31 C21          1.7110    -6.3040     7.2350 cp         1 534      -0.362600
     32 C22          1.3660    -5.6210     8.4040 ca         1 534       0.499200
     33 N5           0.1940    -5.8590     8.9640 nb         1 534      -0.695000
     34 C23         -0.6500    -6.7310     8.4320 ca         1 534       0.708900
     35 N7          -1.8680    -6.9510     9.0490 nv         1 534      -0.486500
     36 N6          -0.3590    -7.3980     7.3240 nb         1 534      -0.695000
     37 C24          0.7920    -7.2110     6.7030 ca         1 534       0.499200
     38 H261        -0.3610     0.9680     0.3270 hc         1 534       0.004700
     39 H262        -0.3610    -0.2000    -1.0010 hc         1 534       0.004700
     40 H263        -0.3610    -0.7670     0.6740 hc         1 534       0.004700
     41 H25          1.8910     0.8850    -0.5100 hc         1 534       0.027700
     42 H271         1.5000    -0.7440     2.0170 hc         1 534       0.004700
     43 H272         3.0970    -0.2340     1.4520 hc         1 534       0.004700
     44 H273         1.8830     0.9780     1.8810 hc         1 534       0.004700
     45 H13          3.0870    -0.1140    -2.2020 ha         1 534       0.108000
     46 H11          1.0810    -2.5810     0.6510 ha         1 534       0.108000
     47 H14          3.9120    -2.1190    -3.3720 ha         1 534       0.115000
     48 H10          1.8960    -4.5970    -0.5060 ha         1 534       0.115000
     49 H2           3.8680    -5.8780    -5.7460 h4         1 534      -0.009900
     50 H1           4.7070    -7.7950    -4.4530 h4         1 534      -0.009900
     51 H91C         5.8790    -4.9140    -0.5710 h1         1 534       0.026450
     52 H92C         5.8140    -6.6650    -0.3000 h1         1 534       0.026450
     53 H61C         2.2040    -6.8840    -0.4470 h1         1 534       0.026450
     54 H62C         3.7110    -7.7920    -0.2290 h1         1 534       0.026450
     55 H81C         6.3210    -5.5750     1.8190 h1         1 534       0.027950
     56 H82C         4.9280    -4.4920     1.6340 h1         1 534       0.027950
     57 H71C         2.4940    -5.7970     1.7180 h1         1 534       0.027950
     58 H72C         2.6370    -7.5510     1.9450 h1         1 534       0.027950
     59 H20          2.6460    -7.4680     4.9820 ha         1 534       0.128000
     60 H16          6.4120    -5.4620     4.8570 ha         1 534       0.122000
     61 H17          5.8420    -4.2360     6.9170 ha         1 534       0.109000
     62 H18          3.6720    -4.6170     8.0200 ha         1 534       0.110000
     63 H22          2.0510    -4.9070     8.8450 h4         1 534      -0.011400
     64 H24          1.0220    -7.7600     5.7980 h4         1 534      -0.011400
     65 H71N        -2.1030    -6.4540     9.8850 hn         1 534       0.276300
     66 H72N        -2.5150    -7.6070     8.6580 hn         1 534       0.276300
@<TRIPOS>BOND
     1     1     2 1   
     2     1    38 1   
     3     1    39 1   
     4     1    40 1   
     5     2     3 1   
     6     2     4 1   
     7     2    41 1   
     8     3    42 1   
     9     3    43 1   
    10     3    44 1   
    11     4     5 ar  
    12     4     7 ar  
    13     5     6 ar  
    14     5    45 1   
    15     6     9 ar  
    16     6    47 1   
    17     7     8 ar  
    18     7    46 1   
    19     8     9 ar  
    20     8    48 1   
    21     9    10 1   
    22    10    11 ar  
    23    10    15 ar  
    24    11    12 ar  
    25    12    13 ar  
    26    12    49 1   
    27    13    14 ar  
    28    13    50 1   
    29    14    15 ar  
    30    15    16 1   
    31    16    17 1   
    32    16    19 1   
    33    17    18 1   
    34    17    51 1   
    35    17    52 1   
    36    18    21 1   
    37    18    55 1   
    38    18    56 1   
    39    19    20 1   
    40    19    53 1   
    41    19    54 1   
    42    20    21 1   
    43    20    57 1   
    44    20    58 1   
    45    21    22 1   
    46    22    23 2   
    47    22    24 2   
    48    22    25 1   
    49    25    26 ar  
    50    25    27 ar  
    51    26    30 ar  
    52    26    59 1   
    53    27    28 ar  
    54    27    60 1   
    55    28    29 ar  
    56    28    61 1   
    57    29    30 ar  
    58    29    62 1   
    59    30    31 1   
    60    31    32 ar  
    61    31    37 ar  
    62    32    33 ar  
    63    32    63 1   
    64    33    34 ar  
    65    34    35 1   
    66    34    36 ar  
    67    35    65 1   
    68    35    66 1   
    69    36    37 ar  
    70    37    64 1   
@<TRIPOS>SUBSTRUCTURE
     1 534         1 TEMP              0 ****  ****    0 ROOT
