@<TRIPOS>MOLECULE
535
   24    25     1     0     0
SMALL
bcc


@<TRIPOS>ATOM
      1 N1          0.2000   -0.0000   -0.2540 nc        1 535     -0.635000
      2 C2          1.5360   -0.0000   -0.0550 cd        1 535      0.389900
      3 N3          1.8430   -0.0000    1.3590 na        1 535     -0.146900
      4 C4          0.6230   -0.0000    2.0320 cd        1 535     -0.248600
      5 C5         -0.3630   -0.0000    1.0240 cc        1 535      0.330200
      6 C6          3.2060   -0.0000    1.6110 cc        1 535      0.057400
      7 C7          3.9290   -0.0000    0.4190 cd        1 535     -0.195700
      8 S8          2.9470   -0.0000   -0.9820 ss        1 535      0.044700
      9 C9          3.7880   -0.0000    2.9700 c3        1 535     -0.051800
     10 C10         5.3790   -0.0000    0.3980 c         1 535      0.684700
     11 O11         5.9200   -0.0000   -0.8610 os        1 535     -0.439900
     12 C12         7.3590   -0.0000   -0.9330 c3        1 535      0.143400
     13 C13         7.7030    0.0000   -2.4020 c3        1 535     -0.102100
     14 O14         6.1520   -0.0000    1.3630 o         1 535     -0.550000
     15 H4          0.5500   -0.0000    3.1170 h4        1 535      0.187000
     16 H5         -1.4460   -0.0000    1.1550 h4        1 535      0.048100
     17 H9          4.4420    0.9030    3.0890 hc        1 535      0.075367
     18 H9A         3.0090   -0.0000    3.7700 hc        1 535      0.075367
     19 H9B         4.4420   -0.9030    3.0890 hc        1 535      0.075367
     20 H12         7.7440   -0.9140   -0.4090 h1        1 535      0.053700
     21 H12A        7.7440    0.9140   -0.4090 h1        1 535      0.053700
     22 H13         7.2840    0.9050   -2.9040 hc        1 535      0.050367
     23 H13A        7.2840   -0.9050   -2.9040 hc        1 535      0.050367
     24 H13B        8.8130    0.0000   -2.5140 hc        1 535      0.050367
@<TRIPOS>BOND
     1    1    2 2   
     2    1    5 1   
     3    2    3 1   
     4    2    8 1   
     5    3    4 1   
     6    3    6 1   
     7    4    5 2   
     8    4   15 1   
     9    5   16 1   
    10    6    7 2   
    11    6    9 1   
    12    7    8 1   
    13    7   10 1   
    14    9   17 1   
    15    9   18 1   
    16    9   19 1   
    17   10   11 1   
    18   10   14 2   
    19   11   12 1   
    20   12   13 1   
    21   12   20 1   
    22   12   21 1   
    23   13   22 1   
    24   13   23 1   
    25   13   24 1   
@<TRIPOS>SUBSTRUCTURE
     1 535         1 TEMP              0 ****  ****    0 ROOT
