@<TRIPOS>MOLECULE
molecule
   24    25     1     0     0
SMALL
bcc


@<TRIPOS>ATOM
      1 N1           0.0000     0.0000     0.0000 nc         1 535      -0.660000
      2 C2           1.3110     0.0000     0.0000 cd         1 535       0.478900
      3 N3           1.7670     0.0000     1.2850 na         1 535      -0.137900
      4 C4           0.6270     0.0000     2.0850 cd         1 535      -0.268600
      5 C5          -0.4370     0.0000     1.2680 cc         1 535       0.357200
      6 C6           3.1220    -0.0000     1.4350 cd         1 535       0.030400
      7 C7           3.8880    -0.0010     0.3310 cc         1 535      -0.111700
      8 S8           2.7510    -0.0000    -1.0290 ss         1 535      -0.119300
      9 C9           3.7470    -0.0000     2.8060 c3         1 535      -0.040800
     10 C10          5.3530    -0.0000     0.2660 c          1 535       0.700700
     11 O11          5.9750    -0.0000    -0.9320 os         1 535      -0.421900
     12 C12          7.4270     0.0000    -0.9200 c3         1 535       0.149400
     13 C13          7.9480    -0.0000    -2.3590 c3         1 535      -0.096100
     14 O14          6.0080     0.0000     1.2900 o          1 535      -0.548000
     15 H4           0.6030    -0.0000     3.1680 h4         1 535       0.181000
     16 H5          -1.4750     0.0000     1.5790 h4         1 535       0.053100
     17 H9           2.9680     0.0000     3.5580 hc         1 535       0.067367
     18 H9A          4.3620     0.8840     2.9230 hc         1 535       0.067367
     19 H9B          4.3620    -0.8850     2.9230 hc         1 535       0.067367
     20 H12          7.7840     0.8850    -0.4070 h1         1 535       0.050700
     21 H12A         7.7840    -0.8850    -0.4070 h1         1 535       0.050700
     22 H13          9.0320     0.0000    -2.3500 hc         1 535       0.049700
     23 H13A         7.5910    -0.8850    -2.8720 hc         1 535       0.049700
     24 H13B         7.5910     0.8840    -2.8720 hc         1 535       0.049700
@<TRIPOS>BOND
     1     2     1 2
     2     1     5 1
     3     8     2 1
     4     2     3 1
     5     6     3 1
     6     3     4 1
     7     4     5 2
     8     4    15 1
     9     5    16 1
    10     7     6 2
    11     6     9 1
    12    10     7 1
    13     8     7 1
    14     9    17 1
    15     9    18 1
    16     9    19 1
    17    11    10 1
    18    10    14 2
    19    12    11 1
    20    13    12 1
    21    12    20 1
    22    12    21 1
    23    13    22 1
    24    13    23 1
    25    13    24 1
@<TRIPOS>SUBSTRUCTURE
     1 535         1 TEMP              0 ****  ****    0 ROOT
