@<TRIPOS>MOLECULE
molecule
   33    34     1     0     0
SMALL
bcc


@<TRIPOS>ATOM
      1 C1           0.0000     0.0000     0.0000 c3         1 536       0.265100
      2 N2           1.4650     0.0000     0.0000 nh         1 536      -0.632400
      3 C3           2.1580     0.0000     1.1780 c2         1 536       0.272000
      4 C4           3.4690    -0.2750     1.2250 ce         1 536      -0.441400
      5 C5           4.2730    -0.5900    -0.0050 c3         1 536      -0.024200
      6 C6           3.3460    -1.0250    -1.1440 c3         1 536      -0.092400
      7 C7           2.2100    -0.0070    -1.2660 c3         1 536       0.210800
      8 C8           4.1220    -0.2700     2.4810 c          1 536       0.517300
      9 O9           3.4920    -0.0170     3.4920 o          1 536      -0.506100
     10 N10          5.4390    -0.5440     2.5570 nz         1 536      -0.668400
     11 C11         -0.5020     1.4210     0.0000 ca         1 536      -0.147300
     12 C12         -0.7330     2.0720    -1.1970 ca         1 536      -0.112000
     13 C13         -1.1930     3.3750    -1.1970 ca         1 536      -0.119000
     14 C14         -1.4240     4.0270    -0.0010 ca         1 536      -0.101000
     15 C15         -1.1950     3.3760     1.1960 ca         1 536      -0.119000
     16 C16         -0.7380     2.0710     1.1970 ca         1 536      -0.112000
     17 H1          -0.3610    -0.5110     0.8840 h1         1 536       0.077700
     18 H11         -0.3610    -0.5110    -0.8850 h1         1 536       0.077700
     19 H3           1.6320     0.2200     2.0990 h4         1 536       0.183000
     20 H5           4.9670    -1.3920     0.2160 hc         1 536       0.036200
     21 H51          4.8230     0.2930    -0.3090 hc         1 536       0.036200
     22 H6           3.9040    -1.0590    -2.0720 hc         1 536       0.072700
     23 H61          2.9350    -2.0020    -0.9230 hc         1 536       0.072700
     24 H7           2.6210     0.9780    -1.4530 h1         1 536       0.076700
     25 H71          1.5500    -0.2930    -2.0760 h1         1 536       0.076700
     26 HN10         5.6080    -1.4670     2.2110 hn         1 536       0.469467
     27 HN11         5.9490     0.1180     2.0060 hn         1 536       0.469467
     28 H12         -0.5520     1.5610    -2.1350 ha         1 536       0.128000
     29 H13         -1.3740     3.8860    -2.1360 ha         1 536       0.144500
     30 H14         -1.7830     5.0490    -0.0020 ha         1 536       0.146000
     31 H15         -1.3780     3.8870     2.1340 ha         1 536       0.144500
     32 H16         -0.5580     1.5600     2.1350 ha         1 536       0.128000
     33 H103         5.7110    -0.6050     3.5180 hn         1 536       0.469467
@<TRIPOS>BOND
     1     1     2 1   
     2     1    11 1   
     3     2     3 1   
     4     2     7 1   
     5     3     4 2   
     6     4     5 1   
     7     4     8 1   
     8     5     6 1   
     9     6     7 1   
    10     8     9 2   
    11     8    10 1   
    12    11    12 ar  
    13    11    16 ar  
    14    12    13 ar  
    15    13    14 ar  
    16    14    15 ar  
    17    15    16 ar  
    18     1    17 1   
    19     1    18 1   
    20     3    19 1   
    21     5    20 1   
    22     5    21 1   
    23     6    22 1   
    24     6    23 1   
    25     7    24 1   
    26     7    25 1   
    27    10    26 1   
    28    10    27 1   
    29    12    28 1   
    30    13    29 1   
    31    14    30 1   
    32    15    31 1   
    33    16    32 1   
    34    33    10 1   
@<TRIPOS>SUBSTRUCTURE
     1 536         1 TEMP              0 ****  ****    0 ROOT
