@<TRIPOS>MOLECULE
537
   25    28     1     0     0
SMALL
bcc


@<TRIPOS>ATOM
      1 C1         -0.0050    0.0040   -0.0280 ca        1 537     -0.104000
      2 C2          1.3900    0.0040   -0.0220 ca        1 537     -0.122000
      3 C3          2.0880    0.0000    1.1880 ca        1 537     -0.040900
      4 C4          1.3830   -0.0030    2.4210 ca        1 537     -0.153600
      5 C5         -0.0180   -0.0030    2.3870 ca        1 537     -0.077000
      6 C6         -0.7070    0.0000    1.1750 ca        1 537     -0.141000
      7 C11         4.1290   -0.0020    2.5620 ca        1 537     -0.195900
      8 C12         5.5420    0.0100    2.3620 ca        1 537     -0.061200
      9 C13         6.3710    0.0240    3.4950 ca        1 537     -0.099000
     10 C14         5.7470    0.0190    4.7390 ca        1 537     -0.122000
     11 C15         4.3440    0.0080    4.9120 ca        1 537     -0.078000
     12 C16         3.5060   -0.0000    3.8030 ca        1 537     -0.103600
     13 C20         2.0280   -0.0050    3.7680 c         1 537      0.596300
     14 C21         3.5340   -0.0010    1.2380 cc        1 537      0.374500
     15 O22         1.3520   -0.0110    4.8060 o         1 537     -0.534100
     16 N23         4.5240    0.0070    0.3100 nd        1 537     -0.474100
     17 N24         5.7000    0.0530    0.9600 na        1 537     -0.010100
     18 HC1        -0.5480    0.0070   -0.9850 ha        1 537      0.137000
     19 HC2         1.9470    0.0080   -0.9720 ha        1 537      0.150000
     20 HC5        -0.5730   -0.0060    3.3410 ha        1 537      0.158000
     21 HC6        -1.8070   -0.0000    1.1730 ha        1 537      0.139000
     22 H13         7.4650    0.0380    3.4080 ha        1 537      0.143000
     23 H14         6.3780    0.0250    5.6420 ha        1 537      0.139000
     24 H15         3.9170    0.0080    5.9270 ha        1 537      0.156000
     25 H24         6.5400   -0.1170    0.4590 hn        1 537      0.324700
@<TRIPOS>BOND
     1    1    2 ar  
     2    1    6 ar  
     3    1   18 1   
     4    2    3 ar  
     5    2   19 1   
     6    3    4 ar  
     7    3   14 1   
     8    4    5 ar  
     9    4   13 1   
    10    5    6 ar  
    11    5   20 1   
    12    6   21 1   
    13    7    8 ar  
    14    7   12 ar  
    15    7   14 1   
    16    8    9 ar  
    17    8   17 1   
    18    9   10 ar  
    19    9   22 1   
    20   10   11 ar  
    21   10   23 1   
    22   11   12 ar  
    23   11   24 1   
    24   12   13 1   
    25   13   15 2   
    26   14   16 2   
    27   16   17 1   
    28   17   25 1   
@<TRIPOS>SUBSTRUCTURE
     1 537         1 TEMP              0 ****  ****    0 ROOT
