@<TRIPOS>MOLECULE
molecule
   25    28     1     0     0
SMALL
bcc


@<TRIPOS>ATOM
      1 C1           0.0000     0.0000     0.0000 ca         1 537      -0.102000
      2 C2           1.3790     0.0000     0.0000 ca         1 537      -0.124000
      3 C3           2.0760     0.0000     1.2050 ca         1 537      -0.027900
      4 C4           1.3660     0.0000     2.4260 ca         1 537      -0.155600
      5 C5          -0.0320    -0.0030     2.3990 ca         1 537      -0.070000
      6 C6          -0.7000    -0.0030     1.1960 ca         1 537      -0.142000
      7 C11          4.1820     0.0030     2.5240 ca         1 537      -0.215900
      8 C12          5.5590     0.0030     2.3340 ca         1 537      -0.076200
      9 C13          6.3300     0.0090     3.4930 ca         1 537      -0.098000
     10 C14          5.7090     0.0130     4.7290 ca         1 537      -0.120000
     11 C15          4.3280     0.0100     4.8880 ca         1 537      -0.078000
     12 C16          3.5280     0.0100     3.7480 ca         1 537      -0.112600
     13 C20          2.0600     0.0020     3.7330 c          1 537       0.599300
     14 C21          3.5500    -0.0010     1.2200 cc         1 537       0.373500
     15 O22          1.4270     0.0020     4.7730 o          1 537      -0.528100
     16 N23          4.5490    -0.0040     0.3730 nd         1 537      -0.479100
     17 N24          5.7000    -0.0030     0.9740 na         1 537       0.023900
     18 HC1         -0.5390    -0.0000    -0.9400 ha         1 537       0.134000
     19 HC2          1.9200     0.0020    -0.9380 ha         1 537       0.147000
     20 HC5         -0.5900    -0.0050     3.3270 ha         1 537       0.155000
     21 HC6         -1.7840    -0.0030     1.1840 ha         1 537       0.135000
     22 H13          7.4110     0.0110     3.4260 ha         1 537       0.133000
     23 H14          6.3300     0.0180     5.6170 ha         1 537       0.137000
     24 H15          3.8840     0.0140     5.8770 ha         1 537       0.155000
     25 H24          6.5820    -0.0060     0.5010 hn         1 537       0.336700
@<TRIPOS>BOND
     1     1     2 ar  
     2     1     6 ar  
     3     1    18 1   
     4     2     3 ar  
     5     2    19 1   
     6     3     4 ar  
     7     3    14 1   
     8     4     5 ar  
     9     4    13 1   
    10     5     6 ar  
    11     5    20 1   
    12     6    21 1   
    13     7     8 ar  
    14     7    12 ar  
    15     7    14 1   
    16     8     9 ar  
    17     8    17 1   
    18     9    10 ar  
    19     9    22 1   
    20    10    11 ar  
    21    10    23 1   
    22    11    12 ar  
    23    11    24 1   
    24    12    13 1   
    25    13    15 2   
    26    14    16 2   
    27    16    17 1   
    28    17    25 1   
@<TRIPOS>SUBSTRUCTURE
     1 537         1 TEMP              0 ****  ****    0 ROOT
