@<TRIPOS>MOLECULE
538
   70    74     1     0     0
SMALL
bcc


@<TRIPOS>ATOM
      1 C1           0.0000     0.0000     0.0000 c3         1 538      -0.017100
      2 C2           1.5300     0.0000     0.0000 c3         1 538      -0.037400
      3 C3           2.0410     0.0000     1.4430 c3         1 538       0.077000
      4 N4           1.6520     1.2520     2.0980 ns         1 538      -0.210900
      5 C5           0.4350     1.3670     2.6650 c          1 538       0.619700
      6 O6          -0.3410     0.4320     2.6330 o          1 538      -0.674100
      7 C7           0.0450     2.6290     3.3250 ca         1 538      -0.211600
      8 C8           0.9400     3.7060     3.3630 ca         1 538      -0.075000
      9 C9           0.5940     4.8770     3.9680 ca         1 538      -0.099000
     10 C10         -0.6600     5.0170     4.5600 ca         1 538      -0.177200
     11 N11         -1.2750     6.0480     5.2280 na         1 538       0.433600
     12 C12         -0.6760     7.3600     5.4840 c3         1 538       0.015600
     13 C13         -0.9990     8.2910     4.3430 ca         1 538      -0.155300
     14 C14         -2.1460     9.0620     4.3870 ca         1 538      -0.108000
     15 C15         -2.4460     9.9170     3.3440 ca         1 538      -0.050000
     16 C16         -1.5900    10.0000     2.2470 cp         1 538       0.037000
     17 C17         -0.4350     9.2200     2.2090 ca         1 538      -0.050000
     18 C18         -0.1430     8.3750     3.2600 ca         1 538      -0.108000
     19 C19         -1.9080    10.9150     1.1250 cp         1 538      -0.032000
     20 C20         -2.0660    12.2790     1.3560 ca         1 538      -0.127000
     21 C21         -2.3610    13.1270     0.3080 ca         1 538      -0.134000
     22 C22         -2.5020    12.6310    -0.9780 ca         1 538      -0.139000
     23 C23         -2.3480    11.2840    -1.2280 ca         1 538      -0.065000
     24 C24         -2.0440    10.4110    -0.1820 ca         1 538      -0.088600
     25 C25         -1.8730     8.9690    -0.4430 c          1 538       0.967200
     26 O26         -1.7260     8.1970     0.4830 o          1 538      -0.875300
     27 O27         -1.8790     8.5090    -1.7090 o          1 538      -0.875300
     28 C28         -2.5310     5.6690     5.6180 cc         1 538      -0.234300
     29 C29         -3.5020     6.5400     6.3740 c3         1 538       0.087100
     30 C30         -2.7710     4.4080     5.2270 cd         1 538      -0.148400
     31 C31         -4.0340     3.6200     5.4610 c3         1 538       0.104100
     32 C32         -1.5690     3.9420     4.5290 ca         1 538      -0.114800
     33 C33         -1.2150     2.7490     3.9050 ca         1 538       0.040000
     34 C34          3.5420    -0.1240     1.4450 ca         1 538      -0.096300
     35 C35          4.1340    -1.3490     1.6880 ca         1 538      -0.095000
     36 C36          5.5110    -1.4630     1.6890 ca         1 538      -0.100000
     37 C37          6.2980    -0.3510     1.4490 ca         1 538      -0.108000
     38 C38          5.7050     0.8740     1.2060 ca         1 538      -0.100000
     39 C39          4.3270     0.9860     1.1980 ca         1 538      -0.095000
     40 H1          -0.3610    -0.7090     0.7350 hc         1 538       0.016700
     41 H1A         -0.3610     0.9910     0.2470 hc         1 538       0.016700
     42 H1B         -0.3610    -0.2820    -0.9820 hc         1 538       0.016700
     43 H2           1.8920     0.8840    -0.5110 hc         1 538       0.014700
     44 H2A          1.8920    -0.8850    -0.5110 hc         1 538       0.014700
     45 H3           1.6090    -0.8370     1.9780 h1         1 538       0.056700
     46 HN4          2.3010     2.0130     2.1480 hn         1 538       0.189500
     47 H8           1.9180     3.6070     2.9070 ha         1 538       0.091000
     48 H9           1.2960     5.7020     3.9900 ha         1 538       0.103000
     49 H12         -1.0750     7.7660     6.4050 h1         1 538       0.026200
     50 H12A         0.3990     7.2550     5.5710 h1         1 538       0.026200
     51 H14         -2.8100     8.9960     5.2400 ha         1 538       0.091500
     52 H15         -3.3450    10.5210     3.3790 ha         1 538       0.108000
     53 H17          0.2350     9.2830     1.3600 ha         1 538       0.108000
     54 H18          0.7540     7.7680     3.2310 ha         1 538       0.091500
     55 H20         -1.9570    12.6740     2.3580 ha         1 538       0.090000
     56 H21         -2.4840    14.1880     0.4920 ha         1 538       0.082000
     57 H22         -2.7350    13.3050    -1.7930 ha         1 538       0.084000
     58 H23         -2.4570    10.9040    -2.2360 ha         1 538       0.130000
     59 H29         -4.0910     5.9250     7.0440 hc         1 538       0.009033
     60 H29A        -2.9540     7.2770     6.9490 hc         1 538       0.009033
     61 H29B        -4.1580     7.0420     5.6740 hc         1 538       0.009033
     62 H31         -4.0490     3.2570     6.4820 hc         1 538      -0.000633
     63 H31A        -4.8940     4.2570     5.2920 hc         1 538      -0.000633
     64 H31B        -4.0680     2.7800     4.7780 hc         1 538      -0.000633
     65 H33         -1.8530     1.8780     3.9990 ha         1 538       0.117000
     66 H35          3.5180    -2.2200     1.8760 ha         1 538       0.110000
     67 H36          5.9750    -2.4230     1.8790 ha         1 538       0.100000
     68 H37          7.3770    -0.4400     1.4530 ha         1 538       0.098000
     69 H38          6.3200     1.7450     1.0150 ha         1 538       0.100000
     70 H39          3.8630     1.9470     1.0080 ha         1 538       0.110000
@<TRIPOS>BOND
     1     1     2 1   
     2     1    40 1   
     3     1    41 1   
     4     1    42 1   
     5     2     3 1   
     6     2    43 1   
     7     2    44 1   
     8     3     4 1   
     9     3    34 1   
    10     3    45 1   
    11     4     5 1   
    12     4    46 1   
    13     5     6 2   
    14     5     7 1   
    15     7     8 ar  
    16     7    33 ar  
    17     8     9 ar  
    18     8    47 1   
    19     9    10 ar  
    20     9    48 1   
    21    10    11 1   
    22    10    32 ar  
    23    11    12 1   
    24    11    28 1   
    25    12    13 1   
    26    12    49 1   
    27    12    50 1   
    28    13    14 ar  
    29    13    18 ar  
    30    14    15 ar  
    31    14    51 1   
    32    15    16 ar  
    33    15    52 1   
    34    16    17 ar  
    35    16    19 1   
    36    17    18 ar  
    37    17    53 1   
    38    18    54 1   
    39    19    20 ar  
    40    19    24 ar  
    41    20    21 ar  
    42    20    55 1   
    43    21    22 ar  
    44    21    56 1   
    45    22    23 ar  
    46    22    57 1   
    47    23    24 ar  
    48    23    58 1   
    49    24    25 1   
    50    25    26 1   
    51    25    27 1   
    52    28    29 1   
    53    28    30 2   
    54    29    59 1   
    55    29    60 1   
    56    29    61 1   
    57    30    31 1   
    58    30    32 1   
    59    31    62 1   
    60    31    63 1   
    61    31    64 1   
    62    32    33 ar  
    63    33    65 1   
    64    34    35 ar  
    65    34    39 ar  
    66    35    36 ar  
    67    35    66 1   
    68    36    37 ar  
    69    36    67 1   
    70    37    38 ar  
    71    37    68 1   
    72    38    39 ar  
    73    38    69 1   
    74    39    70 1   
@<TRIPOS>SUBSTRUCTURE
     1 538         1 TEMP              0 ****  ****    0 ROOT
