@<TRIPOS>MOLECULE
molecule
   40    43     1     0     0
SMALL
bcc


@<TRIPOS>ATOM
      1 C5           0.0000     0.0000     0.0000 ca         1 539      -0.085000
      2 C6           1.3990     0.0000     0.0000 ca         1 539      -0.177300
      3 C7           2.0990     0.0000     1.2330 ca         1 539      -0.078300
      4 C8           3.5160     0.0010     1.1870 cp         1 539       0.353800
      5 C10          3.9680    -0.8340     3.5050 ca         1 539      -0.238300
      6 N12          5.7850    -0.0080     4.7410 nb         1 539      -0.688000
      7 C13          6.1420     0.7950     3.7570 ca         1 539       0.419700
      8 C17          2.1620     0.0000    -1.1900 ca         1 539       0.662200
      9 C20          1.5440    -0.6140    -4.8280 c3         1 539      -0.098900
     10 C21          2.2040    -0.0120    -6.0870 c3         1 539      -0.082900
     11 C22          2.8790     1.2980    -5.6450 c3         1 539      -0.082900
     12 C24          1.3840     0.0010     2.4340 ca         1 539      -0.109000
     13 C14          5.4230     0.8360     2.5800 ca         1 539      -0.238300
     14 C11          4.7400    -0.8070     4.6480 ca         1 539       0.419700
     15 C9           4.3100     0.0010     2.4360 cp         1 539      -0.092500
     16 C2           0.0180     0.0010     2.4010 ca         1 539       0.049400
     17 C3          -0.6700     0.0050     1.1890 ca         1 539       0.026400
     18 C23          2.6050     1.4470    -4.1340 c3         1 539      -0.098900
     19 C19          2.3410    -0.0010    -3.6510 c3         1 539       0.235500
     20 N15          4.1160     0.0010     0.0090 nb         1 539      -0.254000
     21 N16          3.4820     0.0010    -1.1040 nb         1 539      -0.411000
     22 N18          1.5380    -0.0010    -2.4250 nu         1 539      -0.886900
     23 Cl1         -0.8720     0.0090     3.8920 cl         1 539      -0.074400
     24 Cl4         -2.4070     0.0060     1.1920 cl         1 539      -0.079400
     25 H1          -0.5470     0.0030    -0.9350 ha         1 539       0.148000
     26 H2           3.1110    -1.4930     3.4350 ha         1 539       0.148500
     27 H3           7.0070     1.4360     3.8780 h4         1 539       0.026100
     28 H4           0.5020    -0.3220    -4.7720 hc         1 539       0.051700
     29 H5           1.6420    -1.6930    -4.8300 hc         1 539       0.051700
     30 H6           1.4510     0.1950    -6.8370 hc         1 539       0.047200
     31 H7           2.9470    -0.6970    -6.4780 hc         1 539       0.047200
     32 H8           3.9460     1.2440    -5.8240 hc         1 539       0.047200
     33 H9           2.4490     2.1350    -6.1820 hc         1 539       0.047200
     34 H10          1.9080    -0.0020     3.3820 ha         1 539       0.173000
     35 H11          5.7220     1.4980     1.7760 ha         1 539       0.148500
     36 H12          4.4830    -1.4500     5.4810 h4         1 539       0.026100
     37 H13          3.4720     1.8600    -3.6320 hc         1 539       0.051700
     38 H14          1.7320     2.0660    -3.9670 hc         1 539       0.051700
     39 H15          3.2750    -0.5300    -3.5060 h1         1 539       0.095700
     40 H16          0.5400    -0.0340    -2.4810 hn         1 539       0.447800
@<TRIPOS>BOND
     1    23    16 1   
     2    24    17 1   
     3    16    17 ar  
     4    16    12 ar  
     5    17     1 ar  
     6    12     3 ar  
     7    14     5 ar  
     8    14     6 ar  
     9     5    15 ar  
    10     1     2 ar  
    11     3     2 ar  
    12     3     4 ar  
    13     6     7 ar  
    14     2     8 ar  
    15    15     4 1   
    16    15    13 ar  
    17     4    20 ar  
    18     7    13 ar  
    19     8    22 1   
    20     8    21 ar  
    21    20    21 ar  
    22    22    19 1   
    23    19     9 1   
    24    19    18 1   
    25     9    10 1   
    26    18    11 1   
    27    10    11 1   
    28     1    25 1   
    29     5    26 1   
    30     7    27 1   
    31     9    28 1   
    32     9    29 1   
    33    10    30 1   
    34    10    31 1   
    35    11    32 1   
    36    11    33 1   
    37    12    34 1   
    38    13    35 1   
    39    14    36 1   
    40    18    37 1   
    41    18    38 1   
    42    19    39 1   
    43    22    40 1   
@<TRIPOS>SUBSTRUCTURE
     1 539         1 TEMP              0 ****  ****    0 ROOT
