@<TRIPOS>MOLECULE
molecule
   48    50     1     0     0
SMALL
bcc


@<TRIPOS>ATOM
      1 N1           0.0000     0.0000     0.0000 na         1 53A      -0.274200
      2 N3           1.3660     0.0000     0.0000 na         1 53A       0.004300
      3 C4          -2.6900    -0.0000     0.6700 cc         1 53A       0.567600
      4 C5          -2.2840     0.0000    -0.7440 ca         1 53A      -0.214300
      5 C6          -0.9110     0.0000    -1.0440 ca         1 53A       0.136700
      6 O2          -6.5970    -0.2390     2.9100 o          1 53A      -0.541000
      7 N4           1.8100     0.0000     1.2900 na         1 53A      -0.376600
      8 C10         -3.6150    -1.2870     3.3690 c          1 53A       0.571100
      9 C13         -3.9010    -2.5710     2.6330 c3         1 53A      -0.197100
     10 C7          -4.2520     0.0000     2.9160 c3         1 53A      -0.161600
     11 C9          -5.6240     0.1240     3.5290 c          1 53A       0.657100
     12 O5          -5.7650     0.6380     4.7610 os         1 53A      -0.408900
     13 C15         -7.1150     0.7270     5.2870 c3         1 53A       0.146400
     14 C19         -7.0760     1.3330     6.6910 c3         1 53A      -0.096100
     15 S1          -4.3960     0.0000     1.1120 ss         1 53A      -0.190400
     16 N2          -1.7560     0.0080     1.6020 nd         1 53A      -0.680000
     17 C11         -3.2220    -0.0080    -1.7760 ca         1 53A      -0.057000
     18 C16         -2.7910    -0.0080    -3.0850 ca         1 53A      -0.170000
     19 C17         -1.4350     0.0010    -3.3800 ca         1 53A      -0.065000
     20 C12         -0.4960     0.0000    -2.3690 ca         1 53A      -0.185000
     21 C3           0.6710     0.0000     2.1340 cc         1 53A      -0.140300
     22 C1          -0.4500     0.0060     1.3030 cd         1 53A       0.454500
     23 C8           0.6710     0.0000     3.5300 c          1 53A       0.668300
     24 O1          -0.3840    -0.0000     4.1400 o          1 53A      -0.515000
     25 O4           1.8430     0.0010     4.2060 os         1 53A      -0.443900
     26 C14          1.7690     0.0010     5.6330 c3         1 53A       0.149400
     27 C18          3.1820     0.0010     6.2180 c3         1 53A      -0.096100
     28 HN3          1.7000     0.8190    -0.4680 hn         1 53A       0.143700
     29 HN4          2.7660    -0.0020     1.5860 hn         1 53A       0.357700
     30 H13         -4.1400    -2.3490     1.6000 hc         1 53A       0.069033
     31 H13A        -4.7410    -3.0730     3.0970 hc         1 53A       0.069033
     32 H13B        -3.0300    -3.2120     2.6720 hc         1 53A       0.069033
     33 H7          -3.6400     0.8370     3.2300 h1         1 53A       0.141700
     34 H15         -7.5510    -0.2630     5.3330 h1         1 53A       0.050200
     35 H15A        -7.7140     1.3560     4.6390 h1         1 53A       0.050200
     36 H19         -6.4660     0.7110     7.3360 hc         1 53A       0.050367
     37 H19A        -8.0820     1.3880     7.0890 hc         1 53A       0.050367
     38 H19B        -6.6520     2.3290     6.6440 hc         1 53A       0.050367
     39 H11         -4.2820    -0.0150    -1.5500 ha         1 53A       0.149000
     40 H16         -3.5160    -0.0070    -3.8900 ha         1 53A       0.140000
     41 H17         -1.1110     0.0010    -4.4130 ha         1 53A       0.139000
     42 H12          0.5610     0.0070    -2.6070 ha         1 53A       0.150000
     43 H14          1.2400     0.8850     5.9670 h1         1 53A       0.048200
     44 H14A         1.2400    -0.8840     5.9670 h1         1 53A       0.048200
     45 H18          3.7110    -0.8840     5.8840 hc         1 53A       0.044367
     46 H18A         3.1260     0.0010     7.3000 hc         1 53A       0.044367
     47 H18B         3.7110     0.8850     5.8840 hc         1 53A       0.044367
     48 O3          -2.8740    -1.2910     4.3220 o          1 53A      -0.454100
@<TRIPOS>BOND
     1     1     2 1   
     2     1     5 1   
     3     1    22 1   
     4     2     7 1   
     5     3     4 1   
     6     3    15 1   
     7     3    16 2   
     8     4     5 ar  
     9     4    17 ar  
    10     5    20 ar  
    11     6    11 2   
    12     7    21 1   
    13    48     8 2   
    14     8     9 1   
    15     8    10 1   
    16    10    11 1   
    17    10    15 1   
    18    11    12 1   
    19    12    13 1   
    20    13    14 1   
    21    16    22 1   
    22    17    18 ar  
    23    18    19 ar  
    24    19    20 ar  
    25    21    22 2   
    26    21    23 1   
    27    23    24 2   
    28    23    25 1   
    29    25    26 1   
    30    26    27 1   
    31     2    28 1   
    32     7    29 1   
    33     9    30 1   
    34     9    31 1   
    35     9    32 1   
    36    10    33 1   
    37    13    34 1   
    38    13    35 1   
    39    14    36 1   
    40    14    37 1   
    41    14    38 1   
    42    17    39 1   
    43    18    40 1   
    44    19    41 1   
    45    20    42 1   
    46    26    43 1   
    47    26    44 1   
    48    27    45 1   
    49    27    46 1   
    50    27    47 1   
@<TRIPOS>SUBSTRUCTURE
     1 53A         1 TEMP              0 ****  ****    0 ROOT
