@<TRIPOS>MOLECULE
53A
   48    50     1     0     0
SMALL
bcc


@<TRIPOS>ATOM
      1 N1           0.0000     0.0000     0.0000 na         1 53A       0.102800
      2 N3           1.3660     0.0000     0.0000 na         1 53A      -0.050700
      3 C4          -2.6900    -0.0000     0.6700 cc         1 53A       0.537600
      4 C5          -2.2840     0.0000    -0.7440 ca         1 53A      -0.193300
      5 C6          -0.9110     0.0000    -1.0440 ca         1 53A      -0.023300
      6 O2          -6.5970    -0.2390     2.9100 o          1 53A      -0.570000
      7 N4           1.8100     0.0000     1.2900 na         1 53A      -0.022600
      8 C10         -3.6150    -1.2870     3.3690 c          1 53A       0.598100
      9 C13         -3.9010    -2.5710     2.6330 c3         1 53A      -0.113100
     10 C7          -4.2520     0.0000     2.9160 c3         1 53A      -0.098600
     11 C9          -5.6240     0.1240     3.5290 c          1 53A       0.724100
     12 O5          -5.7650     0.6380     4.7610 os         1 53A      -0.395900
     13 C15         -7.1150     0.7270     5.2870 c3         1 53A       0.227400
     14 C19         -7.0760     1.3330     6.6910 c3         1 53A      -0.003100
     15 S1          -4.3960     0.0000     1.1120 ss         1 53A      -0.323400
     16 N2          -1.7560     0.0080     1.6020 nd         1 53A      -0.541000
     17 C11         -3.2220    -0.0080    -1.7760 ca         1 53A      -0.026000
     18 C16         -2.7910    -0.0080    -3.0850 ca         1 53A      -0.141000
     19 C17         -1.4350     0.0010    -3.3800 ca         1 53A      -0.034000
     20 C12         -0.4960     0.0000    -2.3690 ca         1 53A      -0.162000
     21 C3           0.6710     0.0000     2.1340 cc         1 53A      -0.289300
     22 C1          -0.4500     0.0060     1.3030 cd         1 53A       0.261500
     23 C8           0.6710     0.0000     3.5300 c          1 53A       0.730300
     24 O1          -0.3840    -0.0000     4.1400 o          1 53A      -0.555000
     25 O4           1.8430     0.0010     4.2060 os         1 53A      -0.428900
     26 C14          1.7690     0.0010     5.6330 c3         1 53A       0.226400
     27 C18          3.1820     0.0010     6.2180 c3         1 53A      -0.004100
     28 HN3          1.7000     0.8190    -0.4680 hn         1 53A       0.068700
     29 HN4          2.7660    -0.0020     1.5860 hn         1 53A       0.198700
     30 H13         -4.1400    -2.3490     1.6000 hc         1 53A       0.038367
     31 H13A        -4.7410    -3.0730     3.0970 hc         1 53A       0.038367
     32 H13B        -3.0300    -3.2120     2.6720 hc         1 53A       0.038367
     33 H7          -3.6400     0.8370     3.2300 h1         1 53A       0.107700
     34 H15         -7.5510    -0.2630     5.3330 h1         1 53A       0.009700
     35 H15A        -7.7140     1.3560     4.6390 h1         1 53A       0.009700
     36 H19         -6.4660     0.7110     7.3360 hc         1 53A       0.012700
     37 H19A        -8.0820     1.3880     7.0890 hc         1 53A       0.012700
     38 H19B        -6.6520     2.3290     6.6440 hc         1 53A       0.012700
     39 H11         -4.2820    -0.0150    -1.5500 ha         1 53A       0.126000
     40 H16         -3.5160    -0.0070    -3.8900 ha         1 53A       0.112000
     41 H17         -1.1110     0.0010    -4.4130 ha         1 53A       0.104000
     42 H12          0.5610     0.0070    -2.6070 ha         1 53A       0.122000
     43 H14          1.2400     0.8850     5.9670 h1         1 53A       0.009700
     44 H14A         1.2400    -0.8840     5.9670 h1         1 53A       0.009700
     45 H18          3.7110    -0.8840     5.8840 hc         1 53A       0.007700
     46 H18A         3.1260     0.0010     7.3000 hc         1 53A       0.007700
     47 H18B         3.7110     0.8850     5.8840 hc         1 53A       0.007700
     48 O3          -2.8740    -1.2910     4.3220 o          1 53A      -0.486100
@<TRIPOS>BOND
     1     1     2 1   
     2     1     5 1   
     3     1    22 1   
     4     2     7 1   
     5     2    28 1   
     6     3     4 1   
     7     3    15 1   
     8     3    16 2   
     9     4     5 ar  
    10     4    17 ar  
    11     5    20 ar  
    12     6    11 2   
    13     7    21 1   
    14     7    29 1   
    15     8     9 1   
    16     8    10 1   
    17     8    48 2   
    18     9    30 1   
    19     9    31 1   
    20     9    32 1   
    21    10    11 1   
    22    10    15 1   
    23    10    33 1   
    24    11    12 1   
    25    12    13 1   
    26    13    14 1   
    27    13    34 1   
    28    13    35 1   
    29    14    36 1   
    30    14    37 1   
    31    14    38 1   
    32    16    22 1   
    33    17    18 ar  
    34    17    39 1   
    35    18    19 ar  
    36    18    40 1   
    37    19    20 ar  
    38    19    41 1   
    39    20    42 1   
    40    21    22 2   
    41    21    23 1   
    42    23    24 2   
    43    23    25 1   
    44    25    26 1   
    45    26    27 1   
    46    26    43 1   
    47    26    44 1   
    48    27    45 1   
    49    27    46 1   
    50    27    47 1   
@<TRIPOS>SUBSTRUCTURE
     1 53A         1 TEMP              0 ****  ****    0 ROOT
