@<TRIPOS>MOLECULE
molecule
   14    14     1     0     0
SMALL
bcc


@<TRIPOS>ATOM
      1 C01          0.0000     0.0000     0.0000 ca         1 53B      -0.117000
      2 C02          1.3880     0.0000     0.0000 ca         1 53B      -0.244300
      3 C03          2.0650     0.0000     1.2160 ca         1 53B       0.434800
      4 C04          3.5460    -0.0000     1.2290 c          1 53B       0.778100
      5 O05          4.1630     0.0010     0.1830 o          1 53B      -0.816800
      6 O06          4.2090    -0.0010     2.4020 o          1 53B      -0.816800
      7 N07          1.3960    -0.0010     2.3640 nb         1 53B      -0.678000
      8 C08          0.0790    -0.0010     2.3940 ca         1 53B       0.598600
      9 C09         -0.6620    -0.0000     1.2140 ca         1 53B      -0.296300
     10 O10         -0.5650    -0.0010     3.5890 oh         1 53B      -0.645300
     11 H011        -0.5530     0.0000    -0.9320 ha         1 53B       0.113000
     12 H021         1.9370     0.0000    -0.9340 ha         1 53B       0.155000
     13 H091        -1.7450    -0.0000     1.2470 ha         1 53B       0.118000
     14 H101        -0.4720    -0.8470     3.9960 ho         1 53B       0.417000
@<TRIPOS>BOND
     1     1     9 ar  
     2     1     2 ar  
     3     9     8 ar  
     4     2     3 ar  
     5     8    10 1   
     6     8     7 ar  
     7     3     7 ar  
     8     3     4 1   
     9     4     5 1   
    10     4     6 1   
    11     1    11 1   
    12     2    12 1   
    13     9    13 1   
    14    10    14 1   
@<TRIPOS>SUBSTRUCTURE
     1 53B         1 TEMP              0 ****  ****    0 ROOT
