@<TRIPOS>MOLECULE
53B
   14    14     1     0     0
SMALL
bcc


@<TRIPOS>ATOM
      1 C01         0.0230    0.5250    0.0760 ca        1 53B     -0.090000
      2 C02         1.4070    0.4280    0.1100 ca        1 53B     -0.273300
      3 C03         2.0430   -0.1090    1.2600 ca        1 53B      0.424800
      4 C04         3.5900   -0.1960    1.2470 c         1 53B      0.826100
      5 O05         4.0910   -1.2460    0.7730 o         1 53B     -0.807300
      6 O06         4.2140    0.8090    1.6700 o         1 53B     -0.807300
      7 N07         1.3520   -0.5340    2.3330 nb        1 53B     -0.725000
      8 C08        -0.0060   -0.4260    2.2710 ca        1 53B      0.601600
      9 C09        -0.7260    0.0930    1.1760 ca        1 53B     -0.309300
     10 O10        -0.7610   -0.8500    3.3510 oh        1 53B     -0.648300
     11 H011       -0.4920    0.9380   -0.8020 ha        1 53B      0.110000
     12 H021        2.0290    0.7570   -0.7320 ha        1 53B      0.142000
     13 H091       -1.8180    0.1470    1.2010 ha        1 53B      0.129000
     14 H101       -0.1600   -1.1830    4.0350 ho        1 53B      0.427000
@<TRIPOS>BOND
     1    1    2 ar  
     2    1    9 ar  
     3    1   11 1   
     4    2    3 ar  
     5    2   12 1   
     6    3    4 1   
     7    3    7 ar  
     8    4    5 1   
     9    4    6 1   
    10    7    8 ar  
    11    8    9 ar  
    12    8   10 1   
    13    9   13 1   
    14   10   14 1   
@<TRIPOS>SUBSTRUCTURE
     1 53B         1 TEMP              0 ****  ****    0 ROOT
