@<TRIPOS>MOLECULE
53C
   18    18     1     0     0
SMALL
bcc


@<TRIPOS>ATOM
      1 C01         0.0540    0.0060   -0.0060 c3        1 53C     -0.198100
      2 C02         1.5470    0.0870   -0.0050 c         1 53C      0.575700
      3 C03         2.2310    0.0610    1.3080 ca        1 53C     -0.137600
      4 C04         1.5220   -0.0400    2.5100 ca        1 53C     -0.127000
      5 C05         2.2020   -0.0620    3.7280 ca        1 53C     -0.113000
      6 C06         3.5900    0.0180    3.7710 ca        1 53C     -0.129000
      7 C07         4.3000    0.1200    2.5620 ca        1 53C      0.112100
      8 C08         3.6300    0.1420    1.3340 ca        1 53C     -0.160000
      9 O09         5.6710    0.1950    2.6610 oh        1 53C     -0.496100
     10 O10         2.1850    0.1730   -1.0630 o         1 53C     -0.535100
     11 H1         -0.3360    0.0390   -1.0530 hc        1 53C      0.065700
     12 H2         -0.3750    0.8660    0.5650 hc        1 53C      0.065700
     13 H3         -0.2770   -0.9480    0.4720 hc        1 53C      0.065700
     14 H4          0.4240   -0.1040    2.5050 ha        1 53C      0.136000
     15 H5          1.6350   -0.1420    4.6680 ha        1 53C      0.139000
     16 H6          4.1380    0.0020    4.7230 ha        1 53C      0.154000
     17 H7          4.1850    0.2220    0.3860 ha        1 53C      0.158000
     18 H8          6.0320    0.2610    1.7640 ho        1 53C      0.424000
@<TRIPOS>BOND
     1    1    2 1   
     2    1   11 1   
     3    1   12 1   
     4    1   13 1   
     5    2    3 1   
     6    2   10 2   
     7    3    4 ar  
     8    3    8 ar  
     9    4    5 ar  
    10    4   14 1   
    11    5    6 ar  
    12    5   15 1   
    13    6    7 ar  
    14    6   16 1   
    15    7    8 ar  
    16    7    9 1   
    17    8   17 1   
    18    9   18 1   
@<TRIPOS>SUBSTRUCTURE
     1 53C         1 TEMP              0 ****  ****    0 ROOT
