@<TRIPOS>MOLECULE
molecule
   18    18     1     0     0
SMALL
bcc


@<TRIPOS>ATOM
      1 C01          0.0000     0.0000     0.0000 c3         1 53C      -0.191100
      2 C02          1.5070     0.0000     0.0000 c          1 53C       0.575700
      3 C03          2.2430     0.0000     1.2740 ca         1 53C      -0.166600
      4 C04          1.5480    -0.0060     2.4870 ca         1 53C      -0.101000
      5 C05          2.2420    -0.0060     3.6780 ca         1 53C      -0.130000
      6 C06          3.6250    -0.0010     3.6800 ca         1 53C      -0.124000
      7 C07          4.3260     0.0060     2.4800 ca         1 53C       0.091100
      8 C08          3.6410     0.0010     1.2770 ca         1 53C      -0.095000
      9 O09          5.6850     0.0120     2.4880 oh         1 53C      -0.518100
     10 O10          2.1130     0.0010    -1.0500 o          1 53C      -0.525100
     11 H1          -0.3610    -0.8860     0.5080 hc         1 53C       0.062033
     12 H2          -0.3610     0.0040    -1.0210 hc         1 53C       0.062033
     13 H3          -0.3610     0.8830     0.5140 hc         1 53C       0.062033
     14 H4           0.4640    -0.0110     2.4910 ha         1 53C       0.135000
     15 H5           1.7010    -0.0110     4.6170 ha         1 53C       0.137000
     16 H6           4.1640     0.0020     4.6190 ha         1 53C       0.143000
     17 H7           4.1870     0.0060     0.3420 ha         1 53C       0.163000
     18 H8           5.9960     0.9010     2.4460 ho         1 53C       0.421000
@<TRIPOS>BOND
     1     5     4 ar
     2     5     6 ar
     3     4     3 ar
     4     1     2 1
     5     6     7 ar
     6     3     2 1
     7     3     8 ar
     8     2    10 2
     9     7     8 ar
    10     7     9 1
    11     1    11 1
    12     1    12 1
    13     1    13 1
    14     4    14 1
    15     5    15 1
    16     6    16 1
    17     8    17 1
    18     9    18 1
@<TRIPOS>SUBSTRUCTURE
     1 53C         1 TEMP              0 ****  ****    0 ROOT
