@<TRIPOS>MOLECULE
molecule
   20    21     1     0     0
SMALL
bcc


@<TRIPOS>ATOM
      1 C01          0.0000     0.0000     0.0000 c3         1 53E       0.094400
      2 C02          1.5350     0.0000     0.0000 c3         1 53E       0.094400
      3 O03          1.9820     0.0000     1.3610 os         1 53E      -0.255900
      4 C04          1.3750    -0.8760     2.2030 ca         1 53E       0.082100
      5 C05          1.9860    -1.1920     3.4250 ca         1 53E      -0.096600
      6 C06          1.3640    -2.0900     4.2980 ca         1 53E      -0.094000
      7 C07          0.1570    -2.6580     3.9550 ca         1 53E      -0.169000
      8 C08         -0.4450    -2.3460     2.7490 ca         1 53E      -0.147000
      9 C09          0.1590    -1.4580     1.8710 ca         1 53E       0.020100
     10 O10         -0.4490    -1.1730     0.6860 os         1 53E      -0.342900
     11 C11          3.2780    -0.5820     3.7860 c          1 53E       0.883200
     12 O12          3.8620    -0.8880     4.9620 o          1 53E      -0.829800
     13 O13          3.8170     0.1970     3.0250 o          1 53E      -0.829800
     14 H1          -0.3640     0.8830     0.5120 h1         1 53E       0.049200
     15 H2          -0.3640    -0.0130    -1.0200 h1         1 53E       0.049200
     16 H3           1.8880     0.9000    -0.4880 h1         1 53E       0.055200
     17 H4           1.8880    -0.9000    -0.4880 h1         1 53E       0.055200
     18 H5           1.8310    -2.3390     5.2430 ha         1 53E       0.159000
     19 H6          -0.3230    -3.3540     4.6320 ha         1 53E       0.109000
     20 H7          -1.3950    -2.7980     2.4880 ha         1 53E       0.115000
@<TRIPOS>BOND
     1     1    10 1
     2     1     2 1
     3     8     7 ar
     4     8     9 ar
     5    10     9 1
     6     7     6 ar
     7     9     4 ar
     8     6     5 ar
     9     4     5 ar
    10     4     3 1
    11    13    11 1
    12     2     3 1
    13     5    11 1
    14    11    12 1
    15     1    14 1
    16     1    15 1
    17     2    16 1
    18     2    17 1
    19     6    18 1
    20     7    19 1
    21     8    20 1
@<TRIPOS>SUBSTRUCTURE
     1 53E         1 TEMP              0 ****  ****    0 ROOT
