@<TRIPOS>MOLECULE
53E
   20    21     1     0     0
SMALL
bcc


@<TRIPOS>ATOM
      1 C01        -0.1050    0.1160    0.1140 c3        1 53E      0.093400
      2 C02         1.4120    0.2190    0.1330 c3        1 53E      0.091400
      3 O03         1.9010    0.1970    1.4720 os        1 53E     -0.284900
      4 C04         1.3680   -0.8430    2.2250 ca        1 53E      0.062100
      5 C05         2.0530   -1.2510    3.3790 ca        1 53E     -0.076600
      6 C06         1.4730   -2.2520    4.1640 ca        1 53E     -0.128000
      7 C07         0.2600   -2.8450    3.8120 ca        1 53E     -0.149000
      8 C08        -0.4170   -2.4480    2.6620 ca        1 53E     -0.161000
      9 C09         0.1430   -1.4400    1.8700 ca        1 53E      0.032100
     10 O10        -0.5510   -1.1020    0.7100 os        1 53E     -0.338900
     11 C11         3.3970   -0.6590    3.8000 c         1 53E      0.924200
     12 O12         3.3890    0.2010    4.7220 o         1 53E     -0.819300
     13 O13         4.4310   -1.0970    3.2270 o         1 53E     -0.819300
     14 H1         -0.5630    0.9770    0.6690 h1        1 53E      0.048200
     15 H2         -0.5020    0.0720   -0.9330 h1        1 53E      0.048200
     16 H3          1.8710   -0.6250   -0.4450 h1        1 53E      0.055700
     17 H4          1.7610    1.2040   -0.2700 h1        1 53E      0.055700
     18 H5          1.9990   -2.5700    5.0760 ha        1 53E      0.136000
     19 H6         -0.1690   -3.6330    4.4460 ha        1 53E      0.108000
     20 H7         -1.3690   -2.9070    2.3670 ha        1 53E      0.122000
@<TRIPOS>BOND
     1    1    2 1   
     2    1   10 1   
     3    1   14 1   
     4    1   15 1   
     5    2    3 1   
     6    2   16 1   
     7    2   17 1   
     8    3    4 1   
     9    4    5 ar  
    10    4    9 ar  
    11    5    6 ar  
    12    5   11 1   
    13    6    7 ar  
    14    6   18 1   
    15    7    8 ar  
    16    7   19 1   
    17    8    9 ar  
    18    8   20 1   
    19    9   10 1   
    20   11   12 1   
    21   11   13 1   
@<TRIPOS>SUBSTRUCTURE
     1 53E         1 TEMP              0 ****  ****    0 ROOT
