@<TRIPOS>MOLECULE
molecule
   83    86     1     0     0
SMALL
bcc


@<TRIPOS>ATOM
      1 N1           0.0000     0.0000     0.0000 nv         1 53F      -0.910200
      2 C2           1.3970     0.0000     0.0000 ca         1 53F       0.252600
      3 C4           3.4740     0.0000     1.1990 ca         1 53F       0.018500
      4 C5           4.1640     0.0000     0.0010 ca         1 53F      -0.378500
      5 C6           3.4740    -0.0050    -1.1980 ca         1 53F       0.018500
      6 C12          6.6440    -2.2720    -1.2620 c3         1 53F       0.232800
      7 C13          5.6470    -3.4250    -1.3860 c3         1 53F      -0.099700
      8 C14          4.2220    -2.8670    -1.4170 c3         1 53F      -0.091100
      9 C15          5.9190    -4.1980    -2.6790 c3         1 53F      -0.091100
     10 C1           7.1580    -6.5630     8.8940 c3         1 53F       0.130700
     11 C3           2.0930     0.0000     1.2020 ca         1 53F      -0.234500
     12 O1           8.2060    -5.6230     8.6480 os         1 53F      -0.333900
     13 C7           2.0930    -0.0050    -1.2020 ca         1 53F      -0.234500
     14 O10          6.3250     0.5520    -1.2490 o          1 53F      -0.632800
     15 S8           5.9260     0.0090     0.0020 sy         1 53F       1.429200
     16 O9           6.3250     0.5580     1.2490 o          1 53F      -0.632800
     17 N11          6.4240    -1.5700     0.0050 n3         1 53F      -0.814500
     18 C16          6.6430    -2.2660     1.2750 c3         1 53F       0.234800
     19 C17          8.1390    -2.2780     1.5980 c3         1 53F       0.110100
     20 O18          8.5950    -0.9390     1.7970 oh         1 53F      -0.578800
     21 C19          8.3800    -3.0950     2.8700 c3         1 53F       0.124700
     22 C32          7.7160    -2.3960     4.0570 c3         1 53F      -0.042100
     23 C07          7.8470    -3.2590     5.2850 ca         1 53F      -0.106300
     24 C08          6.8710    -4.1940     5.5800 ca         1 53F      -0.079500
     25 C06          8.9450    -3.1190     6.1130 ca         1 53F      -0.079500
     26 C05          9.0680    -3.9090     7.2400 ca         1 53F      -0.183000
     27 C09          8.0880    -4.8440     7.5410 ca         1 53F       0.138100
     28 O41         14.2560    -3.1540     4.4570 oh         1 53F      -0.586800
     29 C03          6.9890    -4.9860     6.7050 ca         1 53F      -0.183000
     30 N20          9.8200    -3.2080     3.1110 ns         1 53F      -0.567900
     31 C21         10.3050    -4.2440     3.8260 c          1 53F       0.745100
     32 O22          9.5460    -5.0840     4.2680 o          1 53F      -0.607000
     33 O23         11.6280    -4.3470     4.0480 os         1 53F      -0.422900
     34 C24         12.0780    -5.4880     4.8260 c3         1 53F       0.180100
     35 C01         12.3780    -6.6530     3.8800 c3         1 53F      -0.145400
     36 C31         13.3090    -5.0990     5.6120 c3         1 53F      -0.132700
     37 C41         14.4290    -4.5520     4.6990 c3         1 53F       0.125100
     38 C29         15.6880    -4.8140     5.5610 c3         1 53F       0.094400
     39 O28         15.3540    -5.8290     6.5170 os         1 53F      -0.389600
     40 C27         14.0100    -6.3040     6.2690 c3         1 53F       0.351900
     41 O01         14.1300    -7.3870     5.3450 os         1 53F      -0.444600
     42 C02         12.9230    -7.8150     4.7220 c3         1 53F       0.152400
     43 H1          -0.5000    -0.0180    -0.8670 hn         1 53F       0.434800
     44 H2          -0.5000     0.0200     0.8670 hn         1 53F       0.434800
     45 H3           4.0170     0.0020     2.1360 ha         1 53F       0.148000
     46 H4           4.0180    -0.0070    -2.1350 ha         1 53F       0.148000
     47 H5           6.5030    -1.5830    -2.0860 h1         1 53F       0.060700
     48 H6           7.6540    -2.6640    -1.2880 h1         1 53F       0.060700
     49 H7           5.7560    -4.0900    -0.5380 hc         1 53F       0.051700
     50 H8           3.5270    -3.6640    -1.6540 hc         1 53F       0.037867
     51 H9           4.1540    -2.0920    -2.1720 hc         1 53F       0.037867
     52 H10          3.9760    -2.4500    -0.4480 hc         1 53F       0.037867
     53 H11          5.2330    -5.0330    -2.7520 hc         1 53F       0.037867
     54 H12          5.7790    -3.5410    -3.5290 hc         1 53F       0.037867
     55 H13          6.9380    -4.5670    -2.6720 hc         1 53F       0.037867
     56 H14          6.2180    -6.0350     9.0050 h1         1 53F       0.039033
     57 H15          7.3720    -7.1120     9.8030 h1         1 53F       0.039033
     58 H16          7.0890    -7.2540     8.0630 h1         1 53F       0.039033
     59 H17          1.5530    -0.0000     2.1410 ha         1 53F       0.134500
     60 H18          1.5530    -0.0090    -2.1420 ha         1 53F       0.134500
     61 H19          6.2820    -3.2840     1.1970 h1         1 53F       0.066200
     62 H20          6.1080    -1.7520     2.0650 h1         1 53F       0.066200
     63 H21          8.6820    -2.7250     0.7740 h1         1 53F       0.041700
     64 H22          9.3580    -0.7840     1.2660 ho         1 53F       0.400000
     65 H23          7.9550    -4.0840     2.7490 h1         1 53F       0.081700
     66 H24          6.6670    -2.2340     3.8400 hc         1 53F       0.064200
     67 H25          8.1990    -1.4420     4.2310 hc         1 53F       0.064200
     68 H26          6.0130    -4.3050     4.9280 ha         1 53F       0.128000
     69 H27          9.7110    -2.3890     5.8790 ha         1 53F       0.128000
     70 H28          9.9290    -3.7990     7.8880 ha         1 53F       0.133000
     71 H29         14.8540    -2.8760     3.7830 ho         1 53F       0.403000
     72 H30          6.2250    -5.7180     6.9350 ha         1 53F       0.133000
     73 H31         10.4480    -2.5360     2.7150 hn         1 53F       0.323500
     74 H32         11.2970    -5.7850     5.5160 h1         1 53F       0.083700
     75 H33         13.1200    -6.3510     3.1510 hc         1 53F       0.066700
     76 H34         11.4680    -6.9610     3.3790 hc         1 53F       0.066700
     77 H35         13.0530    -4.3630     6.3660 hc         1 53F       0.095700
     78 H36         14.4760    -5.1100     3.7720 h1         1 53F       0.058700
     79 H37         15.9740    -3.9050     6.0770 h1         1 53F       0.055200
     80 H38         16.4990    -5.1560     4.9310 h1         1 53F       0.055200
     81 H39         13.5170    -6.6070     7.1850 h2         1 53F       0.088700
     82 H40         13.1260    -8.6640     4.0810 h1         1 53F       0.055200
     83 H41         12.1980    -8.0870     5.4790 h1         1 53F       0.055200
@<TRIPOS>BOND
     1     1     2 1   
     2     2    13 ar  
     3     2    11 ar  
     4    13     5 ar  
     5    11     3 ar  
     6     5     4 ar  
     7     3     4 ar  
     8     4    15 1   
     9    15    16 2   
    10    15    14 2   
    11    15    17 1   
    12     6    17 1   
    13     6     7 1   
    14    17    18 1   
    15    18    19 1   
    16     8     7 1   
    17     7     9 1   
    18    19    20 1   
    19    19    21 1   
    20    22    21 1   
    21    22    23 1   
    22    21    30 1   
    23    24    23 ar  
    24    24    29 ar  
    25    23    25 ar  
    26    29    27 ar  
    27    25    26 ar  
    28    27    26 ar  
    29    27    12 1   
    30    30    31 1   
    31    32    31 2   
    32    12    10 1   
    33    31    33 1   
    34    33    34 1   
    35    34    35 1   
    36    34    36 1   
    37    37    38 1   
    38    37    36 1   
    39    37    28 1   
    40    38    39 1   
    41    35    42 1   
    42    36    40 1   
    43    39    40 1   
    44    42    41 1   
    45    40    41 1   
    46     1    43 1   
    47     1    44 1   
    48     3    45 1   
    49     5    46 1   
    50     6    47 1   
    51     6    48 1   
    52     7    49 1   
    53     8    50 1   
    54     8    51 1   
    55     8    52 1   
    56     9    53 1   
    57     9    54 1   
    58     9    55 1   
    59    10    56 1   
    60    10    57 1   
    61    10    58 1   
    62    11    59 1   
    63    13    60 1   
    64    18    61 1   
    65    18    62 1   
    66    19    63 1   
    67    20    64 1   
    68    21    65 1   
    69    22    66 1   
    70    22    67 1   
    71    24    68 1   
    72    25    69 1   
    73    26    70 1   
    74    28    71 1   
    75    29    72 1   
    76    30    73 1   
    77    34    74 1   
    78    35    75 1   
    79    35    76 1   
    80    36    77 1   
    81    37    78 1   
    82    38    79 1   
    83    38    80 1   
    84    40    81 1   
    85    42    82 1   
    86    42    83 1   
@<TRIPOS>SUBSTRUCTURE
     1 53F         1 TEMP              0 ****  ****    0 ROOT
