@<TRIPOS>MOLECULE
molecule
   26    27     1     0     0
SMALL
bcc


@<TRIPOS>ATOM
      1 N1           0.0000     0.0000     0.0000 nb         1 53G      -0.639000
      2 C4           4.1260     0.0030    -0.0580 ca         1 53G      -0.081000
      3 C5           3.4460     0.0030    -1.2330 ca         1 53G      -0.162300
      4 C6           2.0390     0.0020    -1.2330 ca         1 53G       0.309300
      5 C7           1.3380     0.0000     0.0000 ca         1 53G       0.289300
      6 C8           2.0600     0.0000     1.2050 ca         1 53G      -0.137300
      7 C10          0.0380     0.0010    -2.3550 ca         1 53G       0.307900
      8 O            5.0960    -0.8110     2.6080 o          1 53G      -0.593100
      9 N            3.9220     0.9020     3.3970 n          1 53G      -0.492800
     10 C1           4.7250     0.9450     4.6220 c3         1 53G       0.096300
     11 C            2.8080     1.8350     3.2180 c3         1 53G       0.096300
     12 C3           3.4430     0.0010     1.1700 ca         1 53G      -0.122600
     13 C9          -0.6510    -0.0010    -1.1410 ca         1 53G       0.300900
     14 N2           1.3520     0.0020    -2.3800 nb         1 53G      -0.641000
     15 H1           5.2100     0.0040    -0.0670 ha         1 53G       0.154000
     16 H2           3.9870     0.0040    -2.1710 ha         1 53G       0.156000
     17 H3           1.5370    -0.0010     2.1540 ha         1 53G       0.158000
     18 H4          -0.5160     0.0000    -3.2860 h4         1 53G       0.033100
     19 H5           4.9160    -0.0640     4.9650 h1         1 53G       0.044367
     20 H6           5.6660     1.4420     4.4200 h1         1 53G       0.044367
     21 H7           4.1860     1.4910     5.3870 h1         1 53G       0.044367
     22 H8           2.9720     2.7150     3.8280 h1         1 53G       0.044367
     23 H9           1.8830     1.3550     3.5170 h1         1 53G       0.044367
     24 H10          2.7430     2.1250     2.1760 h1         1 53G       0.044367
     25 H11         -1.7350    -0.0020    -1.1400 h4         1 53G       0.033100
     26 C2           4.2080     0.0010     2.4350 c          1 53G       0.671700
@<TRIPOS>BOND
     1     1    13 ar  
     2     1     5 ar  
     3    13     7 ar  
     4     6     5 ar  
     5     6    12 ar  
     6     5     4 ar  
     7    11     9 1   
     8    10     9 1   
     9     9    26 1   
    10    26    12 1   
    11    26     8 2   
    12    12     2 ar  
    13     7    14 ar  
    14     4    14 ar  
    15     4     3 ar  
    16     2     3 ar  
    17     2    15 1   
    18     3    16 1   
    19     6    17 1   
    20     7    18 1   
    21    10    19 1   
    22    10    20 1   
    23    10    21 1   
    24    11    22 1   
    25    11    23 1   
    26    11    24 1   
    27    13    25 1   
@<TRIPOS>SUBSTRUCTURE
     1 53G         1 TEMP              0 ****  ****    0 ROOT
