@<TRIPOS>MOLECULE
53H
   57    61     1     0     0
SMALL
bcc


@<TRIPOS>ATOM
      1 C1           0.0000     0.0000     0.0000 c2         1 53H       0.268000
      2 C2          -1.9180    -4.6820     8.4520 c2         1 53H       0.027000
      3 C3           1.5070     0.0000     0.0000 c3         1 53H      -0.300000
      4 C4          -1.3050    -3.2790     6.7360 c2         1 53H      -0.108000
      5 C5           0.0120    -3.7620     6.8270 c2         1 53H      -0.256000
      6 C6           0.2930    -4.7430     7.7930 c2         1 53H       0.047000
      7 C7           2.0170     0.0000     1.4420 c3         1 53H      -0.083000
      8 N1          -0.6960    -5.1660     8.5740 n2         1 53H      -0.167000
      9 N2          -0.6740     1.1490     0.2010 ns         1 53H      -0.504000
     10 O1          -0.6060    -1.0340    -0.1880 o          1 53H      -0.326000
     11 C8          -0.0260    -2.2820     5.2420 c2         1 53H      -0.284000
     12 O2          -3.6360    -0.5200     7.1220 oh         1 53H      -0.255000
     13 N3          -2.2280    -3.7630     7.5610 n2         1 53H      -0.097000
     14 C9           1.5070    -1.2490     2.1640 c3         1 53H      -0.126333
     15 C10          3.5470     0.0010     1.4420 c3         1 53H      -0.126333
     16 C11          1.5060     1.2490     2.1630 c3         1 53H      -0.126333
     17 N4           1.9970    -1.2000    -0.6920 nz         1 53H       0.847000
     18 S1          -2.3300     1.1490     0.2020 s6         1 53H       2.479000
     19 O1A         -2.7320     2.4840     0.4720 o          1 53H      -0.832500
     20 O2A         -2.7310     0.4370    -0.9610 o          1 53H      -0.832500
     21 O5          -2.7810     0.3150     1.3930 os         1 53H      -0.571000
     22 C25         -2.6310     0.9730     2.6520 c3         1 53H       0.105000
     23 C24         -3.1120     0.0470     3.7720 DU         1 53H       0.123000
     24 C23         -3.0760     0.7820     5.1300 c3         1 53H      -0.491000
     25 O3          -4.3750     1.2720     5.4690 oh         1 53H      -0.291000
     26 C22         -2.6280    -0.3040     6.1330 DU         1 53H       0.168000
     27 C21         -2.4460    -1.5670     5.2620 c3         1 53H      -0.210000
     28 O4          -2.2030    -1.0650     3.9300 os         1 53H      -0.241000
     29 N9          -1.2980    -2.3480     5.7290 na         1 53H       0.340000
     30 N7           0.7410    -3.1130     5.8880 n2         1 53H      -0.034000
     31 H3           1.8680     0.8840    -0.5110 hx         1 53H       0.136000
     32 HN2         -0.0360     1.7600    -0.2690 hn         1 53H       0.156000
     33 H8           0.2980    -1.6350     4.4370 h5         1 53H       0.157000
     34 HO2         -3.4970     0.0680     7.8460 ho         1 53H       0.208000
     35 H9           1.9680    -2.1290     1.7320 hc         1 53H       0.067778
     36 H9A          0.4310    -1.3140     2.0560 hc         1 53H       0.067778
     37 H9B          1.7610    -1.1870     3.2150 hc         1 53H       0.067778
     38 H10          3.9070     0.2910     2.4220 hc         1 53H       0.067778
     39 H10A         3.9070     0.7040     0.7020 hc         1 53H       0.067778
     40 H10B         3.9080    -0.9920     1.2040 hc         1 53H       0.067778
     41 H11          1.5920     2.1060     1.5060 hc         1 53H       0.067778
     42 H11A         0.4670     1.1080     2.4380 hc         1 53H       0.067778
     43 H11B         2.0960     1.4180     3.0560 hc         1 53H       0.067778
     44 HN4          1.6820    -2.0170    -0.2070 hn         1 53H       0.033000
     45 HN4A         1.6450    -1.2120    -1.6290 hn         1 53H       0.033000
     46 H25         -1.5870     1.2180     2.8090 h1         1 53H       0.076500
     47 H25A        -3.2200     1.8820     2.6570 h1         1 53H       0.076500
     48 H24         -4.1130    -0.3130     3.5670 ha         1 53H       0.088000
     49 H23         -3.8700     0.2440     4.6260 DU         1 53H       0.364000
     50 HO3         -3.7640     1.9900     5.4500 ho         1 53H       0.306000
     51 H22         -1.6880    -0.0260     6.5950 ha         1 53H       0.035000
     52 H21         -1.7320    -0.9680     5.8150 DU         1 53H       0.167000
     53 HN6          1.7700    -4.4060     7.4400 hn         1 53H       0.074000
     54 HN6A         1.9550    -5.4120     8.8400 hn         1 53H       0.074000
     55 N6           1.5710    -5.2570     7.9280 nv         1 53H       0.086000
     56 H43          2.9970    -1.1880    -0.7120 hn         1 53H       0.033000
     57 H2          -2.6950    -5.0550     9.1080 h5         1 53H       0.145000
@<TRIPOS>BOND
     1     1     3 1   
     2     1     9 1   
     3     1    10 1   
     4     2     8 1   
     5     2    13 1   
     6     2    57 1   
     7     3     7 1   
     8     3    17 1   
     9     3    31 1   
    10     4     5 1   
    11     4    13 1   
    12     4    29 1   
    13     5     6 1   
    14     5    30 1   
    15     6     8 1   
    16     6    55 1   
    17     7    14 1   
    18     7    15 1   
    19     7    16 1   
    20     9    18 1   
    21     9    32 1   
    22    11    29 1   
    23    11    30 1   
    24    11    33 1   
    25    12    26 1   
    26    12    34 1   
    27    14    35 1   
    28    14    36 1   
    29    14    37 1   
    30    15    38 1   
    31    15    39 1   
    32    15    40 1   
    33    16    41 1   
    34    16    42 1   
    35    16    43 1   
    36    17    44 1   
    37    17    45 1   
    38    17    56 1   
    39    18    19 1   
    40    18    20 1   
    41    18    21 1   
    42    21    22 1   
    43    22    23 1   
    44    22    46 1   
    45    22    47 1   
    46    23    24 1   
    47    23    28 1   
    48    23    48 1   
    49    23    49 1   
    50    24    25 1   
    51    24    26 1   
    52    24    49 1   
    53    25    50 1   
    54    26    27 1   
    55    26    51 1   
    56    26    52 1   
    57    27    28 1   
    58    27    29 1   
    59    27    52 1   
    60    53    55 1   
    61    54    55 1   
@<TRIPOS>SUBSTRUCTURE
     1 53H         1 TEMP              0 ****  ****    0 ROOT
