@<TRIPOS>MOLECULE
molecule
   57    59     1     0     0
SMALL
bcc


@<TRIPOS>ATOM
      1 C1           0.0000     0.0000     0.0000 c          1 53H       0.635100
      2 C2          -1.9180    -4.6820     8.4520 ca         1 53H       0.744900
      3 C3           1.5070     0.0000     0.0000 c3         1 53H       0.032500
      4 C4          -1.3050    -3.2790     6.7360 ca         1 53H       0.500800
      5 C5           0.0120    -3.7620     6.8270 ca         1 53H      -0.226200
      6 C6           0.2930    -4.7430     7.7930 ca         1 53H       0.696200
      7 C7           2.0170     0.0000     1.4420 c3         1 53H      -0.093000
      8 N1          -0.6960    -5.1660     8.5740 nb         1 53H      -0.789000
      9 N2          -0.6740     1.1490     0.2010 ns         1 53H      -0.637300
     10 O1          -0.6060    -1.0340    -0.1880 o          1 53H      -0.522100
     11 C8          -0.0260    -2.2820     5.2420 cc         1 53H       0.369700
     12 O2          -3.6360    -0.5200     7.1220 oh         1 53H      -0.531800
     13 N3          -2.2280    -3.7630     7.5610 nb         1 53H      -0.747000
     14 C9           1.5070    -1.2490     2.1640 c3         1 53H      -0.099433
     15 C10          3.5470     0.0010     1.4420 c3         1 53H      -0.099433
     16 C11          1.5060     1.2490     2.1630 c3         1 53H      -0.099433
     17 N4           1.9970    -1.2000    -0.6920 nz         1 53H      -0.800600
     18 S1          -2.3300     1.1490     0.2020 s6         1 53H       1.650100
     19 O1A         -2.7320     2.4840     0.4720 o          1 53H      -0.594800
     20 O2A         -2.7310     0.4370    -0.9610 o          1 53H      -0.594800
     21 O5          -2.7810     0.3150     1.3930 os         1 53H      -0.531500
     22 C25         -2.6310     0.9730     2.6520 c3         1 53H       0.178400
     23 C24         -3.1120     0.0470     3.7720 c3         1 53H       0.155100
     24 C23         -3.0760     0.7820     5.1300 c3         1 53H      -0.358900
     25 O3          -4.3750     1.2720     5.4690 oh         1 53H      -0.561800
     26 C22         -2.6280    -0.3040     6.1330 c3         1 53H       0.199100
     27 C21         -2.4460    -1.5670     5.2620 c3         1 53H      -0.005200
     28 O4          -2.2030    -1.0650     3.9300 os         1 53H      -0.399600
     29 N9          -1.2980    -2.3480     5.7290 na         1 53H      -0.240000
     30 N7           0.7410    -3.1130     5.8880 nd         1 53H      -0.567100
     31 H3           1.8680     0.8840    -0.5110 hx         1 53H       0.119700
     32 HN2         -0.0360     1.7600    -0.2690 hn         1 53H       0.345500
     33 H8           0.2980    -1.6350     4.4370 h5         1 53H       0.068800
     34 HO2         -3.4970     0.0680     7.8460 ho         1 53H       0.427000
     35 H9           1.9680    -2.1290     1.7320 hc         1 53H       0.060589
     36 H9A          0.4310    -1.3140     2.0560 hc         1 53H       0.060589
     37 H9B          1.7610    -1.1870     3.2150 hc         1 53H       0.060589
     38 H10          3.9070     0.2910     2.4220 hc         1 53H       0.060589
     39 H10A         3.9070     0.7040     0.7020 hc         1 53H       0.060589
     40 H10B         3.9080    -0.9920     1.2040 hc         1 53H       0.060589
     41 H11          1.5920     2.1060     1.5060 hc         1 53H       0.060589
     42 H11A         0.4670     1.1080     2.4380 hc         1 53H       0.060589
     43 H11B         2.0960     1.4180     3.0560 hc         1 53H       0.060589
     44 HN4          1.6820    -2.0170    -0.2070 hn         1 53H       0.468133
     45 HN4A         1.6450    -1.2120    -1.6290 hn         1 53H       0.468133
     46 H25         -1.5870     1.2180     2.8090 h1         1 53H       0.087700
     47 H25A        -3.2200     1.8820     2.6570 h1         1 53H       0.087700
     48 H24         -4.1130    -0.3130     3.5670 h1         1 53H       0.092700
     49 H23         -3.8700     0.2440     4.6260 h1         1 53H       0.378700
     50 HO3         -3.7640     1.9900     5.4500 ho         1 53H       0.496000
     51 H22         -1.6880    -0.0260     6.5950 h1         1 53H       0.030700
     52 H21         -1.7320    -0.9680     5.8150 h2         1 53H       0.199700
     53 HN6          1.7700    -4.4060     7.4400 hn         1 53H       0.409800
     54 HN6A         1.9550    -5.4120     8.8400 hn         1 53H       0.409800
     55 N6           1.5710    -5.2570     7.9280 nv         1 53H      -0.849500
     56 H43          2.9970    -1.1880    -0.7120 hn         1 53H       0.468133
     57 H2          -2.6950    -5.0550     9.1080 h5         1 53H       0.077100
@<TRIPOS>BOND
     1     1     3 1
     2     1     9 1
     3     1    10 2
     4     2     8 ar
     5     2    13 ar
     6     3     7 1
     7     3    17 1
     8     4     5 ar
     9     4    13 ar
    10     4    29 1
    11     5     6 ar
    12     5    30 1
    13     6     8 ar
    14     6    55 1
    15     7    14 1
    16     7    15 1
    17     7    16 1
    18     9    18 1
    19    11    29 1
    20    11    30 2
    21    12    26 1
    22    18    19 2
    23    18    20 2
    24    18    21 1
    25    21    22 1
    26    22    23 1
    27    23    24 1
    28    23    28 1
    29    24    25 1
    30    24    26 1
    31    26    27 1
    32    27    28 1
    33    27    29 1
    34     2    57 1
    35     3    31 1
    36     9    32 1
    37    11    33 1
    38    12    34 1
    39    14    35 1
    40    14    36 1
    41    14    37 1
    42    15    38 1
    43    15    39 1
    44    15    40 1
    45    16    41 1
    46    16    42 1
    47    16    43 1
    48    17    44 1
    49    17    45 1
    50    22    46 1
    51    22    47 1
    52    23    48 1
    53    24    49 1
    54    25    50 1
    55    26    51 1
    56    27    52 1
    57    55    53 1
    58    55    54 1
    59    56    17 1
@<TRIPOS>SUBSTRUCTURE
     1 53H         1 TEMP              0 ****  ****    0 ROOT
