@<TRIPOS>MOLECULE
53I
   67    72     1     0     0
SMALL
bcc


@<TRIPOS>ATOM
      1 O30          0.0000     0.0000     0.0000 o          1 53I      -0.447000
      2 C16          1.2180     0.0000     0.0000 c3         1 53I       0.379000
      3 N17          1.8920     0.0000     1.1670 n3         1 53I       0.024000
      4 N18          3.2940     0.0080     1.1750 n2         1 53I      -0.101000
      5 C19          3.9410    -0.5830     2.1350 c2         1 53I      -0.026000
      6 C25          3.1910    -1.2560     3.2120 ca         1 53I      -0.104000
      7 C26          3.8230    -2.1580     4.0680 ca         1 53I      -0.061000
      8 C27          3.0960    -2.7740     5.0660 ca         1 53I      -0.104000
      9 C28          1.7480    -2.5020     5.2180 ca         1 53I      -0.079000
     10 C29          1.1150    -1.6080     4.3720 ca         1 53I      -0.085000
     11 C24          1.8280    -0.9840     3.3720 ca         1 53I      -0.067000
     12 C20          1.1630    -0.0010     2.4430 c3         1 53I       0.019000
     13 C21          1.2080     1.3760     3.0530 c2         1 53I      -0.216000
     14 C22          0.1060     2.0680     3.1930 c2         1 53I      -0.089000
     15 C23         -1.1890     1.5450     2.6270 c3         1 53I      -0.079000
     16 C37          0.1310     3.3880     3.9190 c3         1 53I      -0.079000
     17 C15          1.9490    -0.0050    -1.2660 c2         1 53I      -0.090000
     18 C14          1.2750    -0.0100    -2.4350 c2         1 53I       0.031000
     19 C13          2.0090    -0.0150    -3.7070 c3         1 53I       0.031000
     20 C10          1.3120    -0.0210    -4.9250 c2         1 53I      -0.027000
     21 O11         -0.0460    -0.0220    -4.9340 os         1 53I      -0.189000
     22 C12         -0.6950     1.2500    -4.9430 c3         1 53I       0.055000
     23 C07          2.0200    -0.0250    -6.1220 c2         1 53I       0.124000
     24 O08          1.3510    -0.0310    -7.3070 os         1 53I      -0.174000
     25 C09          2.1420    -0.0340    -8.4970 c3         1 53I       0.051000
     26 C06          3.4050    -0.0240    -6.1090 c2         1 53I      -0.253000
     27 C05          4.0940    -0.0180    -4.9070 c2         1 53I      -0.013000
     28 C04          5.6010    -0.0110    -4.9070 c3         1 53I       0.021000
     29 C03          6.1110    -1.4290    -4.8920 c2         1 53I      -0.291000
     30 C32          6.4470    -2.0450    -3.7030 c2         1 53I       0.039000
     31 N33          6.8920    -3.2940    -3.7220 n2         1 53I      -0.171000
     32 C34          7.0180    -3.9530    -4.8640 c2         1 53I       0.034000
     33 N35          7.4860    -5.2560    -4.8420 nv         1 53I      -0.010000
     34 N36          6.7050    -3.3980    -6.0260 n2         1 53I      -0.187000
     35 C02          6.2480    -2.1520    -6.0790 c2         1 53I       0.037000
     36 N01          5.9210    -1.5740    -7.2950 nv         1 53I       0.065000
     37 C31          3.4090    -0.0080    -3.7120 c2         1 53I      -0.187000
     38 H1           5.0250    -0.5800     2.1450 h4         1 53I       0.130000
     39 H2           4.8780    -2.3720     3.9510 ha         1 53I       0.108000
     40 H3           3.5830    -3.4760     5.7330 ha         1 53I       0.107000
     41 H4           1.1850    -2.9910     6.0040 ha         1 53I       0.105000
     42 H5           0.0590    -1.3990     4.4950 ha         1 53I       0.112000
     43 H6           0.1350    -0.2980     2.2740 h1         1 53I       0.129000
     44 H7           2.1550     1.7950     3.3730 ha         1 53I       0.117000
     45 H8          -1.3680     0.5430     3.0000 hc         1 53I       0.054167
     46 H9          -2.0030     2.1930     2.9280 hc         1 53I       0.054167
     47 H10         -1.1280     1.5210     1.5450 hc         1 53I       0.054167
     48 H11          1.0590     3.9030     3.7010 hc         1 53I       0.054167
     49 H12         -0.7050     3.9960     3.5930 hc         1 53I       0.054167
     50 H13          0.0560     3.2150     4.9860 hc         1 53I       0.054167
     51 H14          1.4830     0.8720    -0.8320 DU         1 53I       0.023000
     52 H15          1.7400     0.8630    -2.8760 DU         1 53I       0.075000
     53 H16         -1.2800     1.3500    -5.8500 h1         1 53I       0.031000
     54 H17          0.0500     2.0360    -4.9050 h1         1 53I       0.031000
     55 H18         -1.3480     1.3290    -4.0820 h1         1 53I       0.031000
     56 H19          2.7100    -0.9550    -8.5500 h1         1 53I       0.036000
     57 H20          2.8210     0.8090    -8.4820 h1         1 53I       0.036000
     58 H21          1.4930     0.0400    -9.3610 h1         1 53I       0.036000
     59 H22          3.9530    -0.0270    -7.0440 ha         1 53I       0.124000
     60 H23          5.9600     0.5110    -4.0280 hc         1 53I       0.058500
     61 H24          5.9600     0.4920    -5.7970 hc         1 53I       0.058500
     62 H25          6.3480    -1.5140    -2.7640 h4         1 53I       0.118000
     63 H26          6.9240    -5.9830    -4.4470 hn         1 53I       0.072500
     64 H27          8.3910    -5.4680    -5.2120 hn         1 53I       0.072500
     65 H28          5.7180    -0.5960    -7.3450 hn         1 53I       0.072500
     66 H29          5.9590    -2.1200    -8.1340 hn         1 53I       0.072500
     67 H30          3.9540    -0.0040    -2.7760 ha         1 53I       0.133000
@<TRIPOS>BOND
     1     1     2 1   
     2     2     3 1   
     3     2    17 1   
     4     2    51 1   
     5     3     4 1   
     6     3    12 1   
     7     4     5 1   
     8     5     6 1   
     9     5    38 1   
    10     6     7 1   
    11     6    11 1   
    12     7     8 1   
    13     7    39 1   
    14     8     9 1   
    15     8    40 1   
    16     9    10 1   
    17     9    41 1   
    18    10    11 1   
    19    10    42 1   
    20    11    12 1   
    21    12    13 1   
    22    12    43 1   
    23    13    14 1   
    24    13    44 1   
    25    14    15 1   
    26    14    16 1   
    27    15    45 1   
    28    15    46 1   
    29    15    47 1   
    30    16    48 1   
    31    16    49 1   
    32    16    50 1   
    33    17    18 1   
    34    17    51 1   
    35    18    19 1   
    36    18    52 1   
    37    19    20 1   
    38    19    37 1   
    39    19    52 1   
    40    20    21 1   
    41    20    23 1   
    42    21    22 1   
    43    22    53 1   
    44    22    54 1   
    45    22    55 1   
    46    23    24 1   
    47    23    26 1   
    48    24    25 1   
    49    25    56 1   
    50    25    57 1   
    51    25    58 1   
    52    26    27 1   
    53    26    59 1   
    54    27    28 1   
    55    27    37 1   
    56    28    29 1   
    57    28    60 1   
    58    28    61 1   
    59    29    30 1   
    60    29    35 1   
    61    30    31 1   
    62    30    62 1   
    63    31    32 1   
    64    32    33 1   
    65    32    34 1   
    66    33    63 1   
    67    33    64 1   
    68    34    35 1   
    69    35    36 1   
    70    36    65 1   
    71    36    66 1   
    72    37    67 1   
@<TRIPOS>SUBSTRUCTURE
     1 53I         1 TEMP              0 ****  ****    0 ROOT
