@<TRIPOS>MOLECULE
molecule
   67    70     1     0     0
SMALL
bcc


@<TRIPOS>ATOM
      1 O30          0.0000     0.0000     0.0000 o          1 53I      -0.620100
      2 C16          1.2180     0.0000     0.0000 c          1 53I       0.694300
      3 N17          1.8920     0.0000     1.1670 n          1 53I      -0.277800
      4 N18          3.2940     0.0080     1.1750 n2         1 53I      -0.454300
      5 C19          3.9410    -0.5830     2.1350 ce         1 53I       0.452800
      6 C25          3.1910    -1.2560     3.2120 ca         1 53I      -0.178900
      7 C26          3.8230    -2.1580     4.0680 ca         1 53I      -0.093000
      8 C27          3.0960    -2.7740     5.0660 ca         1 53I      -0.135000
      9 C28          1.7480    -2.5020     5.2180 ca         1 53I      -0.106000
     10 C29          1.1150    -1.6080     4.3720 ca         1 53I      -0.119000
     11 C24          1.8280    -0.9840     3.3720 ca         1 53I      -0.020300
     12 C20          1.1630    -0.0010     2.4430 c3         1 53I       0.122200
     13 C21          1.2080     1.3760     3.0530 c2         1 53I      -0.512200
     14 C22          0.1060     2.0680     3.1930 c2         1 53I       0.058600
     15 C23         -1.1890     1.5450     2.6270 c3         1 53I      -0.100900
     16 C37          0.1310     3.3880     3.9190 c3         1 53I      -0.100900
     17 C15          1.9490    -0.0050    -1.2660 cf         1 53I      -0.234200
     18 C14          1.2750    -0.0100    -2.4350 ce         1 53I      -0.023200
     19 C13          2.0090    -0.0150    -3.7070 ca         1 53I      -0.057800
     20 C10          1.3120    -0.0210    -4.9250 ca         1 53I       0.102100
     21 O11         -0.0460    -0.0220    -4.9340 os         1 53I      -0.335900
     22 C12         -0.6950     1.2500    -4.9430 c3         1 53I       0.133700
     23 C07          2.0200    -0.0250    -6.1220 ca         1 53I       0.126100
     24 O08          1.3510    -0.0310    -7.3070 os         1 53I      -0.312900
     25 C09          2.1420    -0.0340    -8.4970 c3         1 53I       0.125700
     26 C06          3.4050    -0.0240    -6.1090 ca         1 53I      -0.204000
     27 C05          4.0940    -0.0180    -4.9070 ca         1 53I      -0.052300
     28 C04          5.6010    -0.0110    -4.9070 c3         1 53I       0.029200
     29 C03          6.1110    -1.4290    -4.8920 ca         1 53I      -0.413900
     30 C32          6.4470    -2.0450    -3.7030 ca         1 53I       0.503200
     31 N33          6.8920    -3.2940    -3.7220 nb         1 53I      -0.785000
     32 C34          7.0180    -3.9530    -4.8640 ca         1 53I       0.970900
     33 N35          7.4860    -5.2560    -4.8420 nv         1 53I      -1.059500
     34 N36          6.7050    -3.3980    -6.0260 nb         1 53I      -0.819000
     35 C02          6.2480    -2.1520    -6.0790 ca         1 53I       0.747200
     36 N01          5.9210    -1.5740    -7.2950 nv         1 53I      -1.007500
     37 C31          3.4090    -0.0080    -3.7120 ca         1 53I      -0.132000
     38 H1           5.0250    -0.5800     2.1450 h4         1 53I       0.052800
     39 H2           4.8780    -2.3720     3.9510 ha         1 53I       0.134000
     40 H3           3.5830    -3.4760     5.7330 ha         1 53I       0.133000
     41 H4           1.1850    -2.9910     6.0040 ha         1 53I       0.133000
     42 H5           0.0590    -1.3990     4.4950 ha         1 53I       0.135000
     43 H6           0.1350    -0.2980     2.2740 h1         1 53I       0.084700
     44 H7           1.1970     1.2280     1.9800 ha         1 53I       0.333000
     45 H8          -2.0060     2.1790     2.9480 hc         1 53I       0.058200
     46 H9          -1.1360     1.5440     1.5450 hc         1 53I       0.058200
     47 H10         -1.3560     0.5340     2.9810 hc         1 53I       0.058200
     48 H11         -0.5300     3.3420     4.7760 hc         1 53I       0.058200
     49 H12          1.1400     3.5980     4.2530 hc         1 53I       0.058200
     50 H13         -0.1990     4.1750     3.2510 hc         1 53I       0.058200
     51 H14          3.0320    -0.0040    -1.2660 ha         1 53I       0.153000
     52 H15          0.1910    -0.0110    -2.4350 ha         1 53I       0.165000
     53 H16         -1.1260     1.4280    -5.9210 h1         1 53I       0.037700
     54 H17          0.0270     2.0260    -4.7200 h1         1 53I       0.037700
     55 H18         -1.4790     1.2610    -4.1960 h1         1 53I       0.037700
     56 H19          2.7090    -0.9550    -8.5510 h1         1 53I       0.041367
     57 H20          1.4930     0.0410    -9.3610 h1         1 53I       0.041367
     58 H21          2.8210     0.8090    -8.4820 h1         1 53I       0.041367
     59 H22          3.9530    -0.0270    -7.0440 ha         1 53I       0.131000
     60 H23          5.9600     0.5110    -4.0280 hc         1 53I       0.053200
     61 H24          5.9600     0.4920    -5.7970 hc         1 53I       0.053200
     62 H25          6.3480    -1.5140    -2.7640 h4         1 53I       0.026100
     63 H26          8.4710    -5.4330    -4.8200 hn         1 53I       0.444800
     64 H27          6.8400    -6.0200    -4.8590 hn         1 53I       0.444800
     65 H28          5.9990    -2.1070    -8.1390 hn         1 53I       0.442300
     66 H29          5.6470    -0.6130    -7.3350 hn         1 53I       0.442300
     67 H30          3.9540    -0.0040    -2.7760 ha         1 53I       0.144000
@<TRIPOS>BOND
     1    36    35 1
     2    35    34 ar
     3    35    29 ar
     4    34    32 ar
     5    28    29 1
     6    28    27 1
     7    29    30 ar
     8    32    33 1
     9    32    31 ar
    10    27    37 ar
    11    27    26 ar
    12    16    14 1
    13    37    19 ar
    14    26    23 ar
    15    30    31 ar
    16     5     4 2
    17     5     6 1
    18     4     3 1
    19    13    14 2
    20    13    12 1
    21    19    18 1
    22    19    20 ar
    23    14    15 1
    24    25    24 1
    25    23    20 ar
    26    23    24 1
    27    18    17 2
    28    20    21 1
    29     6     7 ar
    30     6    11 ar
    31     3    12 1
    32     3     2 1
    33     7     8 ar
    34    12    11 1
    35    22    21 1
    36    17     2 1
    37    11    10 ar
    38     2     1 2
    39     8     9 ar
    40    10     9 ar
    41     5    38 1
    42     7    39 1
    43     8    40 1
    44     9    41 1
    45    10    42 1
    46    12    43 1
    47    13    44 1
    48    15    45 1
    49    15    46 1
    50    15    47 1
    51    16    48 1
    52    16    49 1
    53    16    50 1
    54    17    51 1
    55    18    52 1
    56    22    53 1
    57    22    54 1
    58    22    55 1
    59    25    56 1
    60    25    57 1
    61    25    58 1
    62    26    59 1
    63    28    60 1
    64    28    61 1
    65    30    62 1
    66    33    63 1
    67    33    64 1
    68    36    65 1
    69    36    66 1
    70    37    67 1
@<TRIPOS>SUBSTRUCTURE
     1 53I         1 TEMP              0 ****  ****    0 ROOT
