@<TRIPOS>MOLECULE
molecule
   67    70     1     0     0
SMALL
bcc


@<TRIPOS>ATOM
      1 C10          0.0000     0.0000     0.0000 ca         1 53J       0.102100
      2 C12         -1.0090    -1.2730    -1.7350 c3         1 53J       0.133700
      3 C13          1.4020     0.0000     0.0000 ca         1 53J      -0.058800
      4 C14          2.1410     0.0010    -1.2710 ce         1 53J      -0.022200
      5 C15          3.4910     0.0010    -1.2660 cf         1 53J      -0.235200
      6 C16          4.2260     0.0030    -2.5300 c          1 53J       0.693300
      7 C19          7.4250    -0.6120    -1.2330 ce         1 53J       0.450800
      8 C02          1.4270     2.1270     4.8640 ca         1 53J       0.745200
      9 C03          2.3950     1.4200     4.1490 ca         1 53J      -0.413900
     10 C04          2.1460    -0.0010     3.7120 c3         1 53J       0.030200
     11 C05          1.3980    -0.0010     2.4050 ca         1 53J      -0.052300
     12 C06          0.0130     0.0050     2.4040 ca         1 53J      -0.202000
     13 C07         -0.6870     0.0040     1.2090 ca         1 53J       0.126100
     14 O08         -2.0480     0.0090     1.2180 os         1 53J      -0.312900
     15 C09         -2.6880     0.0150     2.4940 c3         1 53J       0.125700
     16 O11         -0.6830     0.0000    -1.1740 os         1 53J      -0.336900
     17 N17          5.5730     0.0030    -2.5260 n          1 53J      -0.277800
     18 N18          6.2770    -0.0060    -1.3130 n2         1 53J      -0.453300
     19 C20          6.3180     0.0040    -3.7920 c3         1 53J       0.121200
     20 C21          6.8720     1.3820    -4.0520 c2         1 53J      -0.508200
     21 C22          6.4240     2.0870    -5.0610 c2         1 53J       0.058600
     22 C23          5.2440     1.5960    -5.8590 c3         1 53J      -0.100900
     23 C24          7.4510    -0.9820    -3.6870 ca         1 53J      -0.019300
     24 C25          7.9810    -1.2760    -2.4250 ca         1 53J      -0.180900
     25 C26          9.0260    -2.1930    -2.3120 ca         1 53J      -0.094000
     26 C27          9.5260    -2.8040    -3.4450 ca         1 53J      -0.136000
     27 C28          8.9950    -2.5080    -4.6880 ca         1 53J      -0.106000
     28 C29          7.9580    -1.5970    -4.8080 ca         1 53J      -0.119000
     29 O30          3.6210     0.0030    -3.5870 o          1 53J      -0.619100
     30 C31          2.0950     0.0000     1.2170 ca         1 53J      -0.132000
     31 C32          3.5870     2.0520     3.8500 ca         1 53J       0.504200
     32 N33          3.7750     3.3010     4.2480 nb         1 53J      -0.784000
     33 C34          2.8380     3.9500     4.9250 ca         1 53J       0.970900
     34 N35          3.0730     5.2540     5.3230 nv         1 53J      -1.060500
     35 N36          1.6810     3.3810     5.2270 nb         1 53J      -0.818000
     36 C37          7.0880     3.3910    -5.4220 c3         1 53J      -0.100900
     37 H1          -0.4560    -2.0480    -1.2180 h1         1 53J       0.037700
     38 H2          -2.0710    -1.4540    -1.6260 h1         1 53J       0.037700
     39 H3          -0.7480    -1.2820    -2.7860 h1         1 53J       0.037700
     40 H4           1.6020     0.0020    -2.2110 ha         1 53J       0.165000
     41 H5           4.0300     0.0010    -0.3270 ha         1 53J       0.153000
     42 H6           7.9730    -0.6220    -0.2980 h4         1 53J       0.052800
     43 H8           0.0860     0.5540     5.0370 hn         1 53J       0.441800
     44 H9          -0.5000     2.0730     5.6310 hn         1 53J       0.441800
     45 H10          3.0940    -0.5110     3.5860 hc         1 53J       0.051700
     46 H11          1.5590    -0.5130     4.4650 hc         1 53J       0.051700
     47 H12         -0.5260     0.0080     3.3440 ha         1 53J       0.133000
     48 H13         -2.4510     0.9350     3.0130 h1         1 53J       0.041367
     49 H14         -2.3380    -0.8290     3.0770 h1         1 53J       0.041367
     50 H15         -3.7600    -0.0590     2.3610 h1         1 53J       0.041367
     51 H17          5.6580    -0.2870    -4.6000 h1         1 53J       0.083700
     52 H18          5.9580     1.2440    -3.4880 ha         1 53J       0.330000
     53 H21          5.0460     2.2850    -6.6710 hc         1 53J       0.058700
     54 H22          4.3740     1.5340    -5.2170 hc         1 53J       0.058700
     55 H23          5.4650     0.6160    -6.2640 hc         1 53J       0.058700
     56 H24          9.4430    -2.4260    -1.3390 ha         1 53J       0.133000
     57 H25         10.3370    -3.5170    -3.3600 ha         1 53J       0.133000
     58 H26          9.3920    -2.9910    -5.5720 ha         1 53J       0.133000
     59 H27          7.5470    -1.3700    -5.7840 ha         1 53J       0.136000
     60 H28          3.1780    -0.0000     1.2240 ha         1 53J       0.144000
     61 H29          4.3590     1.5310     3.2970 h4         1 53J       0.027100
     62 H30          2.7630     6.0150     4.7520 hn         1 53J       0.444800
     63 H31          3.5510     5.4370     6.1830 hn         1 53J       0.444800
     64 H32          6.3630     4.1940    -5.3630 hc         1 53J       0.058700
     65 H33          7.4780     3.3300    -6.4310 hc         1 53J       0.058700
     66 H34          7.9000     3.5860    -4.7330 hc         1 53J       0.058700
     67 N01          0.2170     1.5350     5.1860 nv         1 53J      -1.007500
@<TRIPOS>BOND
     1    67     8 1   
     2     8    35 ar  
     3     8     9 ar  
     4    35    33 ar  
     5    26    25 ar  
     6    26    27 ar  
     7    10     9 1   
     8    10    11 1   
     9    25    24 ar  
    10     9    31 ar  
    11    33    34 1   
    12    33    32 ar  
    13    27    28 ar  
    14    11    30 ar  
    15    11    12 ar  
    16    30     3 ar  
    17    24     7 1   
    18    24    23 ar  
    19     7    18 2   
    20    31    32 ar  
    21    12    13 ar  
    22    28    23 ar  
    23    23    19 1   
    24     3     4 1   
    25     3     1 ar  
    26    18    17 1   
    27     4     5 2   
    28    13     1 ar  
    29    13    14 1   
    30    15    14 1   
    31     1    16 1   
    32    17    19 1   
    33    17     6 1   
    34    19    20 1   
    35     2    16 1   
    36     5     6 1   
    37     6    29 2   
    38    36    21 1   
    39    20    21 2   
    40    21    22 1   
    41     2    37 1   
    42     2    38 1   
    43     2    39 1   
    44     4    40 1   
    45     5    41 1   
    46     7    42 1   
    47    67    43 1   
    48    67    44 1   
    49    10    45 1   
    50    10    46 1   
    51    12    47 1   
    52    15    48 1   
    53    15    49 1   
    54    15    50 1   
    55    19    51 1   
    56    20    52 1   
    57    22    53 1   
    58    22    54 1   
    59    22    55 1   
    60    25    56 1   
    61    26    57 1   
    62    27    58 1   
    63    28    59 1   
    64    30    60 1   
    65    31    61 1   
    66    34    62 1   
    67    34    63 1   
    68    36    64 1   
    69    36    65 1   
    70    36    66 1   
@<TRIPOS>SUBSTRUCTURE
     1 53J         1 TEMP              0 ****  ****    0 ROOT
