@<TRIPOS>MOLECULE
53J
   67    72     1     0     0
SMALL
bcc


@<TRIPOS>ATOM
      1 C10          0.0000     0.0000     0.0000 c2         1 53J      -0.025000
      2 C12         -1.0090    -1.2730    -1.7350 c3         1 53J       0.055000
      3 C13          1.4020     0.0000     0.0000 c3         1 53J       0.030000
      4 C14          2.1410     0.0010    -1.2710 c2         1 53J       0.033000
      5 C15          3.4910     0.0010    -1.2660 c2         1 53J      -0.079000
      6 C16          4.2260     0.0030    -2.5300 c3         1 53J       0.379000
      7 C19          7.4250    -0.6120    -1.2330 c2         1 53J      -0.035000
      8 C02          1.4270     2.1270     4.8640 c2         1 53J       0.031000
      9 C03          2.3950     1.4200     4.1490 c2         1 53J      -0.284000
     10 C04          2.1460    -0.0010     3.7120 c3         1 53J       0.020000
     11 C05          1.3980    -0.0010     2.4050 c2         1 53J      -0.014000
     12 C06          0.0130     0.0050     2.4040 c2         1 53J      -0.253000
     13 C07         -0.6870     0.0040     1.2090 c2         1 53J       0.125000
     14 O08         -2.0480     0.0090     1.2180 os         1 53J      -0.173000
     15 C09         -2.6880     0.0150     2.4940 c3         1 53J       0.051000
     16 O11         -0.6830     0.0000    -1.1740 os         1 53J      -0.189000
     17 N17          5.5730     0.0030    -2.5260 n3         1 53J       0.024000
     18 N18          6.2770    -0.0060    -1.3130 n2         1 53J      -0.091000
     19 C20          6.3180     0.0040    -3.7920 c3         1 53J       0.018000
     20 C21          6.8720     1.3820    -4.0520 c2         1 53J      -0.211000
     21 C22          6.4240     2.0870    -5.0610 c2         1 53J      -0.085000
     22 C23          5.2440     1.5960    -5.8590 c3         1 53J      -0.080000
     23 C24          7.4510    -0.9820    -3.6870 ca         1 53J      -0.071000
     24 C25          7.9810    -1.2760    -2.4250 ca         1 53J      -0.106000
     25 C26          9.0260    -2.1930    -2.3120 ca         1 53J      -0.063000
     26 C27          9.5260    -2.8040    -3.4450 ca         1 53J      -0.105000
     27 C28          8.9950    -2.5080    -4.6880 ca         1 53J      -0.080000
     28 C29          7.9580    -1.5970    -4.8080 ca         1 53J      -0.085000
     29 O30          3.6210     0.0030    -3.5870 o          1 53J      -0.446000
     30 C31          2.0950     0.0000     1.2170 c2         1 53J      -0.185000
     31 C32          3.5870     2.0520     3.8500 c2         1 53J       0.034000
     32 N33          3.7750     3.3010     4.2480 n2         1 53J      -0.158000
     33 C34          2.8380     3.9500     4.9250 c2         1 53J       0.038000
     34 N35          3.0730     5.2540     5.3230 nv         1 53J      -0.037000
     35 N36          1.6810     3.3810     5.2270 n2         1 53J      -0.178000
     36 C37          7.0880     3.3910    -5.4220 c3         1 53J      -0.080000
     37 H1          -0.6650    -2.0580    -1.0730 h1         1 53J       0.031000
     38 H2          -2.0830    -1.3490    -1.8580 h1         1 53J       0.031000
     39 H3          -0.5270    -1.3770    -2.6990 h1         1 53J       0.031000
     40 H4           1.9920    -0.8740    -0.6510 DU         1 53J       0.073000
     41 H5           3.6400    -0.8730    -1.8880 DU         1 53J       0.011000
     42 H6           7.9730    -0.6220    -0.2980 h4         1 53J       0.131000
     43 H8          -0.4840     2.0590     5.6710 hn         1 53J       0.073500
     44 H9           0.0610     0.5700     4.9720 hn         1 53J       0.073500
     45 H10          3.0940    -0.5110     3.5860 hc         1 53J       0.059000
     46 H11          1.5590    -0.5130     4.4650 hc         1 53J       0.059000
     47 H12         -0.5260     0.0080     3.3440 ha         1 53J       0.124000
     48 H13         -3.7610    -0.0510     2.3600 h1         1 53J       0.036000
     49 H14         -2.4450     0.9320     3.0160 h1         1 53J       0.036000
     50 H15         -2.3440    -0.8330     3.0750 h1         1 53J       0.036000
     51 H17          5.6580    -0.2870    -4.6000 h1         1 53J       0.127000
     52 H18          7.6670     1.7730    -3.4290 ha         1 53J       0.118000
     53 H21          5.4640     0.6150    -6.2620 hc         1 53J       0.054833
     54 H22          5.0470     2.2840    -6.6730 hc         1 53J       0.054833
     55 H23          4.3730     1.5370    -5.2180 hc         1 53J       0.054833
     56 H24          9.4430    -2.4260    -1.3390 ha         1 53J       0.107000
     57 H25         10.3370    -3.5170    -3.3600 ha         1 53J       0.107000
     58 H26          9.3920    -2.9910    -5.5720 ha         1 53J       0.105000
     59 H27          7.5470    -1.3700    -5.7840 ha         1 53J       0.113000
     60 H28          3.1780    -0.0000     1.2240 ha         1 53J       0.134000
     61 H29          4.3590     1.5310     3.2970 h4         1 53J       0.119000
     62 H30          2.7490     6.0150     4.7590 hn         1 53J       0.074000
     63 H31          3.5580     5.4360     6.1790 hn         1 53J       0.074000
     64 H32          8.0140     3.4900    -4.8700 hc         1 53J       0.054833
     65 H33          7.2980     3.4070    -6.4850 hc         1 53J       0.054833
     66 H34          6.4290     4.2140    -5.1720 hc         1 53J       0.054833
     67 N01          0.2170     1.5350     5.1860 nv         1 53J       0.065000
@<TRIPOS>BOND
     1     1     3 1   
     2     1    13 1   
     3     1    16 1   
     4     2    16 1   
     5     2    37 1   
     6     2    38 1   
     7     2    39 1   
     8     3     4 1   
     9     3    30 1   
    10     3    40 1   
    11     4     5 1   
    12     4    40 1   
    13     5     6 1   
    14     5    41 1   
    15     6    17 1   
    16     6    29 1   
    17     6    41 1   
    18     7    18 1   
    19     7    24 1   
    20     7    42 1   
    21     8     9 1   
    22     8    35 1   
    23     8    67 1   
    24     9    10 1   
    25     9    31 1   
    26    10    11 1   
    27    10    45 1   
    28    10    46 1   
    29    11    12 1   
    30    11    30 1   
    31    12    13 1   
    32    12    47 1   
    33    13    14 1   
    34    14    15 1   
    35    15    48 1   
    36    15    49 1   
    37    15    50 1   
    38    17    18 1   
    39    17    19 1   
    40    19    20 1   
    41    19    23 1   
    42    19    51 1   
    43    20    21 1   
    44    20    52 1   
    45    21    22 1   
    46    21    36 1   
    47    22    53 1   
    48    22    54 1   
    49    22    55 1   
    50    23    24 1   
    51    23    28 1   
    52    24    25 1   
    53    25    26 1   
    54    25    56 1   
    55    26    27 1   
    56    26    57 1   
    57    27    28 1   
    58    27    58 1   
    59    28    59 1   
    60    30    60 1   
    61    31    32 1   
    62    31    61 1   
    63    32    33 1   
    64    33    34 1   
    65    33    35 1   
    66    34    62 1   
    67    34    63 1   
    68    36    64 1   
    69    36    65 1   
    70    36    66 1   
    71    43    67 1   
    72    44    67 1   
@<TRIPOS>SUBSTRUCTURE
     1 53J         1 TEMP              0 ****  ****    0 ROOT
