@<TRIPOS>MOLECULE
53K
   46    49     1     0     0
SMALL
bcc


@<TRIPOS>ATOM
      1 N1         -0.1310   -0.5450   -0.0990 na        1 53K      0.046400
      2 N3          1.0460   -1.2070    0.0470 nc        1 53K     -0.169800
      3 C4         -1.6090    5.3790   -7.7590 ca        1 53K     -0.146000
      4 C5         -1.7520    4.0320   -7.4270 ca        1 53K     -0.112000
      5 C6         -0.9900    3.4790   -6.4010 ca        1 53K     -0.172000
      6 C7         -0.0840    4.2900   -5.7100 ca        1 53K      0.099100
      7 C8          0.2970    2.7440   -3.9620 ca        1 53K      0.088100
      8 C10        -1.3690    1.6840   -2.5700 ca        1 53K     -0.131000
      9 C13        -0.4530    0.1040    1.1010 cc        1 53K     -0.209600
     10 C15         0.7850    0.1380    3.3600 ca        1 53K     -0.104500
     11 C17         0.0970    1.4610    5.2740 ca        1 53K     -0.131500
     12 C20         1.8030   -0.4350    4.1370 ca        1 53K     -0.113000
     13 C21         0.8360    0.7000   -2.7560 ca        1 53K     -0.174000
     14 C22         1.2210    1.7270   -3.6260 ca        1 53K      0.119100
     15 O2          2.4720    1.8030   -4.1840 oh        1 53K     -0.472100
     16 O1          0.7760    3.7980   -4.7280 os        1 53K     -0.224200
     17 C3         -0.7010    6.1790   -7.0670 ca        1 53K     -0.113000
     18 C2          0.0770    5.6540   -6.0310 ca        1 53K     -0.081300
     19 C1          1.0580    6.4910   -5.3060 c3        1 53K     -0.048800
     20 C11        -0.4580    0.6810   -2.2310 ca        1 53K     -0.102300
     21 C9         -0.9960    2.7120   -3.4330 ca        1 53K     -0.140000
     22 C12        -0.8860   -0.4430   -1.3330 c3        1 53K      0.102600
     23 N2          1.4860   -1.0610    1.2250 nd        1 53K     -0.346000
     24 C14         0.6000   -0.2370    1.9770 cd        1 53K      0.316800
     25 C19         1.9600   -0.0590    5.4700 ca        1 53K     -0.131500
     26 C18         1.1100    0.8870    6.0420 ca        1 53K     -0.126000
     27 C16        -0.0660    1.0920    3.9410 ca        1 53K     -0.113000
     28 H2         -2.4650    3.4010   -7.9780 ha        1 53K      0.134000
     29 H3         -1.0910    2.4170   -6.1340 ha        1 53K      0.145000
     30 H4         -2.3890    1.6710   -2.1560 ha        1 53K      0.136000
     31 H5         -1.3470    0.7080    1.2320 h4        1 53K      0.191000
     32 H6         -0.5740    2.2090    5.7200 ha        1 53K      0.132500
     33 H7          2.4810   -1.1830    3.6980 ha        1 53K      0.139000
     34 H8          1.5560   -0.0900   -2.4920 ha        1 53K      0.157000
     35 H9          3.0150    1.1030   -3.7890 ho        1 53K      0.423000
     36 H10        -0.5900    7.2410   -7.3360 ha        1 53K      0.136000
     37 H11         1.0240    6.2690   -4.2100 hc        1 53K      0.050033
     38 H12         2.0920    6.2630   -5.6680 hc        1 53K      0.050033
     39 H13         0.8560    7.5780   -5.4630 hc        1 53K      0.050033
     40 H14        -1.7110    3.5030   -3.7070 ha        1 53K      0.155000
     41 H15        -1.9700   -0.3140   -1.0460 h1        1 53K      0.077200
     42 H16        -0.7810   -1.4160   -1.8970 h1        1 53K      0.077200
     43 H17         2.7610   -0.5140    6.0720 ha        1 53K      0.132500
     44 H18         1.2380    1.1800    7.0940 ha        1 53K      0.132000
     45 H19        -0.8640    1.5530    3.3410 ha        1 53K      0.139000
     46 H1         -2.2120    5.8120   -8.5700 ha        1 53K      0.134000
@<TRIPOS>BOND
     1    1    2 1   
     2    1    9 1   
     3    1   22 1   
     4    2   23 2   
     5    3    4 ar  
     6    3   17 ar  
     7    3   46 1   
     8    4    5 ar  
     9    4   28 1   
    10    5    6 ar  
    11    5   29 1   
    12    6   16 1   
    13    6   18 ar  
    14    7   14 ar  
    15    7   16 1   
    16    7   21 ar  
    17    8   20 ar  
    18    8   21 ar  
    19    8   30 1   
    20    9   24 2   
    21    9   31 1   
    22   10   12 ar  
    23   10   24 1   
    24   10   27 ar  
    25   11   26 ar  
    26   11   27 ar  
    27   11   32 1   
    28   12   25 ar  
    29   12   33 1   
    30   13   14 ar  
    31   13   20 ar  
    32   13   34 1   
    33   14   15 1   
    34   15   35 1   
    35   17   18 ar  
    36   17   36 1   
    37   18   19 1   
    38   19   37 1   
    39   19   38 1   
    40   19   39 1   
    41   20   22 1   
    42   21   40 1   
    43   22   41 1   
    44   22   42 1   
    45   23   24 1   
    46   25   26 ar  
    47   25   43 1   
    48   26   44 1   
    49   27   45 1   
@<TRIPOS>SUBSTRUCTURE
     1 53K         1 TEMP              0 ****  ****    0 ROOT
