@<TRIPOS>MOLECULE
molecule
   46    49     1     0     0
SMALL
bcc


@<TRIPOS>ATOM
      1 N1           0.0000     0.0000     0.0000 na         1 53K       0.129400
      2 N3           1.2860     0.0000     0.0000 nc         1 53K      -0.200800
      3 C4          -1.3950     4.7070    -8.1230 ca         1 53K      -0.158000
      4 C5          -1.7750     3.7190    -7.2330 ca         1 53K      -0.099000
      5 C6          -1.1340     3.6010    -6.0150 ca         1 53K      -0.199000
      6 C7          -0.1090     4.4750    -5.6850 ca         1 53K       0.140100
      7 C8           0.1940     3.3110    -3.6890 ca         1 53K       0.103100
      8 C10         -1.1080     2.3910    -1.8990 ca         1 53K      -0.115000
      9 C13         -0.4280    -0.0000     1.2830 cc         1 53K      -0.285600
     10 C15          0.7580     0.0000     3.5390 ca         1 53K      -0.106500
     11 C17         -0.3540    -0.0020     5.6670 ca         1 53K      -0.130000
     12 C20          1.9910    -0.0000     4.1880 ca         1 53K      -0.110000
     13 C21          0.4790     1.0120    -3.0490 ca         1 53K      -0.134000
     14 C22          0.8230     2.0810    -3.8610 ca         1 53K       0.104100
     15 O2           1.7690     1.9280    -4.8240 oh         1 53K      -0.501100
     16 O1           0.5230     4.3620    -4.4860 os         1 53K      -0.240200
     17 C3          -0.3690     5.5750    -7.7980 ca         1 53K      -0.098000
     18 C2           0.2710     5.4650    -6.5790 ca         1 53K      -0.101300
     19 C1           1.3880     6.4130    -6.2270 c3         1 53K      -0.037800
     20 C11         -0.4850     1.1690    -2.0700 ca         1 53K      -0.106300
     21 C9          -0.7710     3.4610    -2.7060 ca         1 53K      -0.123000
     22 C12         -0.8580     0.0050    -1.1880 c3         1 53K       0.110600
     23 N2           1.7370     0.0000     1.2050 nd         1 53K      -0.356000
     24 C14          0.6970    -0.0000     2.0560 cd         1 53K       0.337800
     25 C19          2.0430    -0.0000     5.5670 ca         1 53K      -0.130000
     26 C18          0.8730    -0.0010     6.3050 ca         1 53K      -0.125000
     27 C16         -0.4170    -0.0070     4.2880 ca         1 53K      -0.110000
     28 H2          -2.5780     3.0380    -7.4900 ha         1 53K       0.130000
     29 H3          -1.4330     2.8280    -5.3180 ha         1 53K       0.138000
     30 H4          -1.8630     2.5100    -1.1310 ha         1 53K       0.137000
     31 H5          -1.4560    -0.0010     1.6260 h4         1 53K       0.182000
     32 H6          -1.2670    -0.0050     6.2500 ha         1 53K       0.131500
     33 H7           2.9070     0.0000     3.6100 ha         1 53K       0.138000
     34 H8           0.9660     0.0530    -3.1810 ha         1 53K       0.152000
     35 H9           2.5910     1.6950    -4.4240 ho         1 53K       0.430000
     36 H10         -0.0730     6.3480    -8.4970 ha         1 53K       0.135000
     37 H11          1.4960     7.1520    -7.0120 hc         1 53K       0.045033
     38 H12          1.1580     6.9110    -5.2920 hc         1 53K       0.045033
     39 H13          2.3130     5.8590    -6.1230 hc         1 53K       0.045033
     40 H14         -1.2610     4.4180    -2.5690 ha         1 53K       0.154000
     41 H15         -1.8940     0.0980    -0.8860 h1         1 53K       0.075700
     42 H16         -0.7220    -0.9200    -1.7350 h1         1 53K       0.075700
     43 H17          3.0010    -0.0000     6.0720 ha         1 53K       0.131500
     44 H18          0.9180     0.0010     7.3880 ha         1 53K       0.129000
     45 H19         -1.3790    -0.0080     3.7890 ha         1 53K       0.138000
     46 H1          -1.8970     4.7960    -9.0780 ha         1 53K       0.130000
@<TRIPOS>BOND
     1    15    14 1   
     2    19    18 1   
     3    18    17 ar  
     4    18     6 ar  
     5    17     3 ar  
     6    14    13 ar  
     7    14     7 ar  
     8    16     6 1   
     9    16     7 1   
    10     6     5 ar  
    11     3     4 ar  
    12    13    20 ar  
    13     7    21 ar  
    14     5     4 ar  
    15    20    22 1   
    16    20     8 ar  
    17    21     8 ar  
    18    22     1 1   
    19     1     9 1   
    20     1     2 1   
    21     9    24 2   
    22     2    23 2   
    23    27    11 ar  
    24    27    10 ar  
    25    24    10 1   
    26    24    23 1   
    27    11    26 ar  
    28    10    12 ar  
    29    26    25 ar  
    30    12    25 ar  
    31     3    46 1   
    32     4    28 1   
    33     5    29 1   
    34     8    30 1   
    35     9    31 1   
    36    11    32 1   
    37    12    33 1   
    38    13    34 1   
    39    15    35 1   
    40    17    36 1   
    41    19    37 1   
    42    19    38 1   
    43    19    39 1   
    44    21    40 1   
    45    22    41 1   
    46    22    42 1   
    47    25    43 1   
    48    26    44 1   
    49    27    45 1   
@<TRIPOS>SUBSTRUCTURE
     1 53K         1 TEMP              0 ****  ****    0 ROOT
