@<TRIPOS>MOLECULE
53L
   45    48     1     0     0
SMALL
bcc


@<TRIPOS>ATOM
      1 C2           0.0000     0.0000     0.0000 c3         1 53L       0.096500
      2 C3           1.5310     0.0000     0.0000 c3         1 53L       0.179100
      3 C5           2.0430    -1.2500    -0.7170 c3         1 53L      -0.073100
      4 O6           1.9960     0.0000     1.3530 os         1 53L      -0.391600
      5 C7           1.5380     1.1140     2.1250 c3         1 53L       0.175100
      6 C9           2.0570     0.9900     3.5580 c3         1 53L       0.005900
      7 C10          0.0050     1.1290     2.1370 c3         1 53L       0.090800
      8 N11         -0.4860     1.1580     0.7530 nh         1 53L      -0.329000
      9 C12         -1.8680     1.3080     0.6940 ca         1 53L       0.105600
     10 C13         -2.4850     2.0620     1.6920 ca         1 53L      -0.181000
     11 C14         -3.8510     2.2510     1.6810 ca         1 53L       0.023000
     12 C15         -4.6160     1.6910     0.6740 ca         1 53L      -0.484200
     13 C16         -4.0100     0.9420    -0.3160 ca         1 53L       0.027000
     14 C17         -2.6390     0.7440    -0.3080 ca         1 53L      -0.161300
     15 C18         -2.0370    -0.1010    -1.4020 c3         1 53L       0.064900
     16 C19         -0.5190     0.0960    -1.4380 c3         1 53L      -0.204300
     17 C20         -0.1980     1.4500    -2.0010 c2         1 53L       0.681600
     18 O21         -0.6810     2.5390    -1.3810 oh         1 53L      -0.522600
     19 N22          0.5300     1.6080    -3.0640 ne         1 53L      -0.674100
     20 C23          1.0500     0.5730    -3.7410 c          1 53L       0.736900
     21 O24          1.7260     0.7900    -4.7290 o          1 53L      -0.609500
     22 N25          0.8460    -0.6960    -3.3540 ns         1 53L      -0.183500
     23 C26          0.1080    -0.9870    -2.2710 c          1 53L       0.630500
     24 O27         -0.0520    -2.1460    -1.9550 o          1 53L      -0.631500
     25 N28         -6.0810     1.8950     0.6570 no         1 53L       1.054200
     26 O29         -6.6140     2.5560     1.5310 o          1 53L      -0.453000
     27 O30         -6.7550     1.4020    -0.2300 o          1 53L      -0.453000
     28 H2          -0.3640    -0.9110     0.4590 h1         1 53L       0.064700
     29 H3           1.8910     0.8880    -0.5060 h1         1 53L       0.021700
     30 H51          2.9970    -1.5420    -0.2960 hc         1 53L       0.037367
     31 H52          2.1650    -1.0370    -1.7720 hc         1 53L       0.037367
     32 H53          1.3310    -2.0560    -0.5910 hc         1 53L       0.037367
     33 H7           1.9020     2.0320     1.6810 h1         1 53L       0.020700
     34 H91          1.6740     0.0810     4.0040 hc         1 53L       0.014367
     35 H92          3.1400     0.9590     3.5480 hc         1 53L       0.014367
     36 H93          1.7260     1.8440     4.1370 hc         1 53L       0.014367
     37 H102        -0.3500     0.2250     2.6160 h1         1 53L       0.039700
     38 H103        -0.3320     2.0230     2.6470 h1         1 53L       0.039700
     39 H13         -1.8880     2.5020     2.4820 ha         1 53L       0.133000
     40 H14         -4.3240     2.8390     2.4580 ha         1 53L       0.132000
     41 H16         -4.6120     0.5050    -1.1030 ha         1 53L       0.133000
     42 H182        -2.4590     0.1950    -2.3550 hc         1 53L       0.044700
     43 H183        -2.2590    -1.1440    -1.2130 hc         1 53L       0.044700
     44 H21         -0.5670     3.2930    -1.9360 ho         1 53L       0.432000
     45 H25          1.2510    -1.4410    -3.8860 hn         1 53L       0.215500
@<TRIPOS>BOND
     1     1     2 1   
     2     1     8 1   
     3     1    16 1   
     4     1    28 1   
     5     2     3 1   
     6     2     4 1   
     7     2    29 1   
     8     3    30 1   
     9     3    31 1   
    10     3    32 1   
    11     4     5 1   
    12     5     6 1   
    13     5     7 1   
    14     5    33 1   
    15     6    34 1   
    16     6    35 1   
    17     6    36 1   
    18     7     8 1   
    19     7    37 1   
    20     7    38 1   
    21     8     9 1   
    22     9    10 ar  
    23     9    14 ar  
    24    10    11 ar  
    25    10    39 1   
    26    11    12 ar  
    27    11    40 1   
    28    12    13 ar  
    29    12    25 1   
    30    13    14 ar  
    31    13    41 1   
    32    14    15 1   
    33    15    16 1   
    34    15    42 1   
    35    15    43 1   
    36    16    17 1   
    37    16    23 1   
    38    17    18 1   
    39    17    19 2   
    40    18    44 1   
    41    19    20 1   
    42    20    21 2   
    43    20    22 1   
    44    22    23 1   
    45    22    45 1   
    46    23    24 2   
    47    25    26 1   
    48    25    27 1   
@<TRIPOS>SUBSTRUCTURE
     1 53L         1 TEMP              0 ****  ****    0 ROOT
