@<TRIPOS>MOLECULE
molecule
   45    48     1     0     0
SMALL
bcc


@<TRIPOS>ATOM
      1 C2           0.0000     0.0000     0.0000 c3         1 53L       0.164500
      2 C3           1.5310     0.0000     0.0000 c3         1 53L       0.145100
      3 C5           2.0430    -1.2500    -0.7170 c3         1 53L      -0.126100
      4 O6           1.9960     0.0000     1.3530 os         1 53L      -0.408600
      5 C7           1.5380     1.1140     2.1250 c3         1 53L       0.138100
      6 C9           2.0570     0.9900     3.5580 c3         1 53L      -0.087100
      7 C10          0.0050     1.1290     2.1370 c3         1 53L       0.135800
      8 N11         -0.4860     1.1580     0.7530 nh         1 53L      -0.593000
      9 C12         -1.8680     1.3080     0.6940 ca         1 53L       0.183600
     10 C13         -2.4850     2.0620     1.6920 ca         1 53L      -0.186000
     11 C14         -3.8510     2.2510     1.6810 ca         1 53L      -0.038000
     12 C15         -4.6160     1.6910     0.6740 ca         1 53L      -0.190200
     13 C16         -4.0100     0.9420    -0.3160 ca         1 53L      -0.034000
     14 C17         -2.6390     0.7440    -0.3080 ca         1 53L      -0.144300
     15 C18         -2.0370    -0.1010    -1.4020 c3         1 53L      -0.006100
     16 C19         -0.5190     0.0960    -1.4380 c3         1 53L      -0.211300
     17 C20         -0.1980     1.4500    -2.0010 c2         1 53L       0.719600
     18 O21         -0.6810     2.5390    -1.3810 oh         1 53L      -0.524600
     19 N22          0.5300     1.6080    -3.0640 ne         1 53L      -0.764100
     20 C23          1.0500     0.5730    -3.7410 c          1 53L       0.857900
     21 O24          1.7260     0.7900    -4.7290 o          1 53L      -0.572500
     22 N25          0.8460    -0.6960    -3.3540 ns         1 53L      -0.598500
     23 C26          0.1080    -0.9870    -2.2710 c          1 53L       0.715500
     24 O27         -0.0520    -2.1460    -1.9550 o          1 53L      -0.597500
     25 N28         -6.0810     1.8950     0.6570 no         1 53L       0.298200
     26 O29         -6.6140     2.5560     1.5310 o          1 53L      -0.208500
     27 O30         -6.7550     1.4020    -0.2300 o          1 53L      -0.208500
     28 H2          -0.3640    -0.9110     0.4590 h1         1 53L       0.084700
     29 H3           1.8910     0.8880    -0.5060 h1         1 53L       0.052700
     30 H51          2.9970    -1.5420    -0.2960 hc         1 53L       0.065700
     31 H52          2.1650    -1.0370    -1.7720 hc         1 53L       0.065700
     32 H53          1.3310    -2.0560    -0.5910 hc         1 53L       0.065700
     33 H7           1.9020     2.0320     1.6810 h1         1 53L       0.053700
     34 H91          1.6740     0.0810     4.0040 hc         1 53L       0.051033
     35 H92          3.1400     0.9590     3.5480 hc         1 53L       0.051033
     36 H93          1.7260     1.8440     4.1370 hc         1 53L       0.051033
     37 H102        -0.3500     0.2250     2.6160 h1         1 53L       0.063200
     38 H103        -0.3320     2.0230     2.6470 h1         1 53L       0.063200
     39 H13         -1.8880     2.5020     2.4820 ha         1 53L       0.154000
     40 H14         -4.3240     2.8390     2.4580 ha         1 53L       0.168000
     41 H16         -4.6120     0.5050    -1.1030 ha         1 53L       0.167000
     42 H182        -2.4590     0.1950    -2.3550 hc         1 53L       0.081200
     43 H183        -2.2590    -1.1440    -1.2130 hc         1 53L       0.081200
     44 H21         -0.5670     3.2930    -1.9360 ho         1 53L       0.456000
     45 H25          1.2510    -1.4410    -3.8860 hn         1 53L       0.361500
@<TRIPOS>BOND
     1    21    20 2
     2    20    22 1
     3    20    19 1
     4    22    23 1
     5    19    17 2
     6    23    24 2
     7    23    16 1
     8    17    16 1
     9    17    18 1
    10    16    15 1
    11    16     1 1
    12    15    14 1
    13     3     2 1
    14     1     2 1
    15     1     8 1
    16    13    14 ar
    17    13    12 ar
    18    14     9 ar
    19     2     4 1
    20    27    25 1
    21    12    25 1
    22    12    11 ar
    23    25    26 1
    24     8     9 1
    25     8     7 1
    26     9    10 ar
    27     4     5 1
    28    11    10 ar
    29     5     7 1
    30     5     6 1
    31     1    28 1
    32     2    29 1
    33     3    30 1
    34     3    31 1
    35     3    32 1
    36     5    33 1
    37     6    34 1
    38     6    35 1
    39     6    36 1
    40     7    37 1
    41     7    38 1
    42    10    39 1
    43    11    40 1
    44    13    41 1
    45    15    42 1
    46    15    43 1
    47    18    44 1
    48    22    45 1
@<TRIPOS>SUBSTRUCTURE
     1 53L         1 TEMP              0 ****  ****    0 ROOT
