@<TRIPOS>MOLECULE
53M
   45    48     1     0     0
SMALL
bcc


@<TRIPOS>ATOM
      1 C2           0.0000     0.0000     0.0000 c3         1 53M       0.094500
      2 C3           1.5310     0.0000     0.0000 c3         1 53M       0.180100
      3 C5           2.0420    -1.2500    -0.7190 c3         1 53M      -0.076100
      4 O6           1.9960     0.0000     1.3530 os         1 53M      -0.391600
      5 C7           1.5370     1.1130     2.1250 c3         1 53M       0.175100
      6 C9           2.0590     0.9900     3.5580 c3         1 53M       0.005900
      7 C10          0.0050     1.1280     2.1380 c3         1 53M       0.090800
      8 N11         -0.4910     1.1540     0.7560 nh         1 53M      -0.326000
      9 C12         -1.8720     1.3130     0.6990 ca         1 53M       0.109600
     10 C13         -2.4830     2.0810     1.6930 ca         1 53M      -0.181000
     11 C14         -3.8470     2.2780     1.6810 ca         1 53M       0.024000
     12 C15         -4.6180     1.7150     0.6820 ca         1 53M      -0.485200
     13 C16         -4.0200     0.9520    -0.3010 ca         1 53M       0.028000
     14 C17         -2.6500     0.7460    -0.2950 ca         1 53M      -0.166300
     15 C18         -2.0560    -0.1100    -1.3860 c3         1 53M       0.069900
     16 C19         -0.5200     0.0990    -1.4380 c3         1 53M      -0.212600
     17 C20         -0.2110     1.4600    -1.9930 c2         1 53M       0.673100
     18 O21         -0.6970     2.5460    -1.3670 oh         1 53M      -0.547600
     19 N22          0.5130     1.6180    -3.0590 ne         1 53M      -0.669100
     20 C23          1.0280     0.5760    -3.7290 c          1 53M       0.818900
     21 O24          1.6990     0.7820    -4.7250 o          1 53M      -0.511100
     22 N25          0.8220    -0.6880    -3.3300 ne         1 53M      -0.669100
     23 C26          0.1150    -0.9720    -2.2780 c2         1 53M       0.673100
     24 O27         -0.0530    -2.2590    -1.9310 oh         1 53M      -0.547600
     25 N28         -6.0830     1.9280     0.6670 no         1 53M       1.054200
     26 O29         -6.7610     1.4310    -0.2140 o          1 53M      -0.452500
     27 O30         -6.6100     2.6010     1.5350 o          1 53M      -0.452500
     28 H2          -0.3630    -0.9130     0.4560 h1         1 53M       0.057700
     29 H3           1.8910     0.8880    -0.5050 h1         1 53M       0.024700
     30 H51          3.0170    -1.5170    -0.3290 hc         1 53M       0.041700
     31 H52          2.1210    -1.0500    -1.7800 hc         1 53M       0.041700
     32 H53          1.3520    -2.0690    -0.5560 hc         1 53M       0.041700
     33 H7           1.9020     2.0310     1.6810 h1         1 53M       0.021700
     34 H91          1.6780     0.0790     4.0040 hc         1 53M       0.014367
     35 H92          1.7250     1.8420     4.1380 hc         1 53M       0.014367
     36 H93          3.1420     0.9620     3.5470 hc         1 53M       0.014367
     37 H102        -0.3490     0.2250     2.6200 h1         1 53M       0.039700
     38 H103        -0.3310     2.0230     2.6480 h1         1 53M       0.039700
     39 H13         -1.8810     2.5240     2.4770 ha         1 53M       0.133000
     40 H14         -4.3140     2.8770     2.4540 ha         1 53M       0.132000
     41 H16         -4.6270     0.5110    -1.0830 ha         1 53M       0.132000
     42 H182        -2.2700    -1.1530    -1.1810 hc         1 53M       0.038200
     43 H183        -2.4880     0.1700    -2.3390 hc         1 53M       0.038200
     44 H21         -0.5570     3.3080    -1.9050 ho         1 53M       0.433500
     45 H27         -0.3280    -2.7540    -2.6850 ho         1 53M       0.433500
@<TRIPOS>BOND
     1     1     2 1   
     2     1     8 1   
     3     1    16 1   
     4     1    28 1   
     5     2     3 1   
     6     2     4 1   
     7     2    29 1   
     8     3    30 1   
     9     3    31 1   
    10     3    32 1   
    11     4     5 1   
    12     5     6 1   
    13     5     7 1   
    14     5    33 1   
    15     6    34 1   
    16     6    35 1   
    17     6    36 1   
    18     7     8 1   
    19     7    37 1   
    20     7    38 1   
    21     8     9 1   
    22     9    10 ar  
    23     9    14 ar  
    24    10    11 ar  
    25    10    39 1   
    26    11    12 ar  
    27    11    40 1   
    28    12    13 ar  
    29    12    25 1   
    30    13    14 ar  
    31    13    41 1   
    32    14    15 1   
    33    15    16 1   
    34    15    42 1   
    35    15    43 1   
    36    16    17 1   
    37    16    23 1   
    38    17    18 1   
    39    17    19 2   
    40    18    44 1   
    41    19    20 1   
    42    20    21 2   
    43    20    22 1   
    44    22    23 2   
    45    23    24 1   
    46    24    45 1   
    47    25    26 1   
    48    25    27 1   
@<TRIPOS>SUBSTRUCTURE
     1 53M         1 TEMP              0 ****  ****    0 ROOT
