@<TRIPOS>MOLECULE
molecule
   45    48     1     0     0
SMALL
bcc


@<TRIPOS>ATOM
      1 C2           0.0000     0.0000     0.0000 c3         1 53M       0.166500
      2 C3           1.5310     0.0000     0.0000 c3         1 53M       0.145100
      3 C5           2.0420    -1.2500    -0.7190 c3         1 53M      -0.126100
      4 O6           1.9960     0.0000     1.3530 os         1 53M      -0.409600
      5 C7           1.5370     1.1130     2.1250 c3         1 53M       0.138100
      6 C9           2.0590     0.9900     3.5580 c3         1 53M      -0.087100
      7 C10          0.0050     1.1280     2.1380 c3         1 53M       0.136800
      8 N11         -0.4910     1.1540     0.7560 nh         1 53M      -0.594000
      9 C12         -1.8720     1.3130     0.6990 ca         1 53M       0.189600
     10 C13         -2.4830     2.0810     1.6930 ca         1 53M      -0.186000
     11 C14         -3.8470     2.2780     1.6810 ca         1 53M      -0.038000
     12 C15         -4.6180     1.7150     0.6820 ca         1 53M      -0.191200
     13 C16         -4.0200     0.9520    -0.3010 ca         1 53M      -0.033000
     14 C17         -2.6500     0.7460    -0.2950 ca         1 53M      -0.147300
     15 C18         -2.0560    -0.1100    -1.3860 c3         1 53M      -0.003100
     16 C19         -0.5200     0.0990    -1.4380 c3         1 53M      -0.232600
     17 C20         -0.2110     1.4600    -1.9930 c2         1 53M       0.712600
     18 O21         -0.6970     2.5460    -1.3670 oh         1 53M      -0.554100
     19 N22          0.5130     1.6180    -3.0590 ne         1 53M      -0.771100
     20 C23          1.0280     0.5760    -3.7290 c          1 53M       0.864900
     21 O24          1.6990     0.7820    -4.7250 o          1 53M      -0.475100
     22 N25          0.8220    -0.6880    -3.3300 ne         1 53M      -0.771100
     23 C26          0.1150    -0.9720    -2.2780 c2         1 53M       0.712600
     24 O27         -0.0530    -2.2590    -1.9310 oh         1 53M      -0.554100
     25 N28         -6.0830     1.9280     0.6670 no         1 53M       0.299200
     26 O29         -6.7610     1.4310    -0.2140 o          1 53M      -0.208500
     27 O30         -6.6100     2.6010     1.5350 o          1 53M      -0.208500
     28 H2          -0.3630    -0.9130     0.4560 h1         1 53M       0.076700
     29 H3           1.8910     0.8880    -0.5050 h1         1 53M       0.055700
     30 H51          3.0170    -1.5170    -0.3290 hc         1 53M       0.069367
     31 H52          2.1210    -1.0500    -1.7800 hc         1 53M       0.069367
     32 H53          1.3520    -2.0690    -0.5560 hc         1 53M       0.069367
     33 H7           1.9020     2.0310     1.6810 h1         1 53M       0.054700
     34 H91          1.6780     0.0790     4.0040 hc         1 53M       0.051033
     35 H92          1.7250     1.8420     4.1380 hc         1 53M       0.051033
     36 H93          3.1420     0.9620     3.5470 hc         1 53M       0.051033
     37 H102        -0.3490     0.2250     2.6200 h1         1 53M       0.062200
     38 H103        -0.3310     2.0230     2.6480 h1         1 53M       0.062200
     39 H13         -1.8810     2.5240     2.4770 ha         1 53M       0.155000
     40 H14         -4.3140     2.8770     2.4540 ha         1 53M       0.168000
     41 H16         -4.6270     0.5110    -1.0830 ha         1 53M       0.166000
     42 H182        -2.2700    -1.1530    -1.1810 hc         1 53M       0.073700
     43 H183        -2.4880     0.1700    -2.3390 hc         1 53M       0.073700
     44 H21         -0.5570     3.3080    -1.9050 ho         1 53M       0.457500
     45 H27         -0.3280    -2.7540    -2.6850 ho         1 53M       0.457500
@<TRIPOS>BOND
     1     6     5 1
     2     7     5 1
     3     7     8 1
     4     5     4 1
     5    10    11 ar
     6    10     9 ar
     7    11    12 ar
     8    26    25 1
     9     4     2 1
    10     8     9 1
    11     8     1 1
    12     9    14 ar
    13    12    25 1
    14    12    13 ar
    15    25    27 1
    16     2     1 1
    17     2     3 1
    18     1    16 1
    19    14    13 ar
    20    14    15 1
    21    18    17 1
    22    16    15 1
    23    16    17 1
    24    16    23 1
    25    17    19 2
    26    24    23 1
    27    23    22 2
    28    19    20 1
    29    22    20 1
    30    20    21 2
    31     1    28 1
    32     2    29 1
    33     3    30 1
    34     3    31 1
    35     3    32 1
    36     5    33 1
    37     6    34 1
    38     6    35 1
    39     6    36 1
    40     7    37 1
    41     7    38 1
    42    10    39 1
    43    11    40 1
    44    13    41 1
    45    15    42 1
    46    15    43 1
    47    18    44 1
    48    24    45 1
@<TRIPOS>SUBSTRUCTURE
     1 53M         1 TEMP              0 ****  ****    0 ROOT
