@<TRIPOS>MOLECULE
molecule
   29    30     1     0     0
SMALL
bcc


@<TRIPOS>ATOM
      1 C5           0.0000     0.0000     0.0000 ca         1 53N      -0.079000
      2 C6           1.3960     0.0000     0.0000 ca         1 53N       0.031000
      3 C7           2.1380     0.0010    -1.2790 cc         1 53N      -0.059100
      4 C15          3.9430     0.0010    -2.6990 cd         1 53N      -0.204000
      5 C17          2.0880     0.0000     1.2120 ca         1 53N      -0.093000
      6 C1          -0.6860     0.0010     1.1970 ca         1 53N      -0.147200
      7 N2          -2.1660     0.0010     1.1990 no         1 53N       0.295200
      8 O3          -2.7760    -0.0010     0.1450 o          1 53N      -0.213000
      9 O4          -2.7740    -0.0010     2.2540 o          1 53N      -0.213000
     10 S8           1.4060     0.0020    -2.8780 ss         1 53N      -0.145800
     11 C9           2.9930     0.0030    -3.6380 cc         1 53N       0.054600
     12 C11          3.3250    -1.4400    -5.6280 c3         1 53N      -0.179400
     13 C12          3.5740    -1.4390    -7.1140 c          1 53N       0.890600
     14 O13          3.6850    -2.6000    -7.7780 o          1 53N      -0.848800
     15 O14          3.6750    -0.3920    -7.7100 o          1 53N      -0.848800
     16 C16          3.4800     0.0060    -1.3990 cd         1 53N      -0.112000
     17 C18          1.3890    -0.0000     2.4010 ca         1 53N      -0.132000
     18 C19          0.0050     0.0000     2.3940 ca         1 53N      -0.096000
     19 H5          -0.5420    -0.0770    -0.9350 ha         1 53N       0.174000
     20 H10          2.4290     0.5150    -5.6260 hc         1 53N       0.067200
     21 H10A         4.1740     0.5140    -5.3340 hc         1 53N       0.067200
     22 H15          4.9990     0.0040    -2.9410 ha         1 53N       0.154000
     23 H17          3.1710    -0.0000     1.2180 ha         1 53N       0.145000
     24 H11          2.3930    -1.9500    -5.4190 hc         1 53N       0.035700
     25 H11A         4.1380    -1.9510    -5.1270 hc         1 53N       0.035700
     26 H16          4.1440     0.0060    -0.5430 ha         1 53N       0.131000
     27 H18          1.9250    -0.0010     3.3430 ha         1 53N       0.139000
     28 H19         -0.5390     0.0000     3.3310 ha         1 53N       0.156000
     29 C10          3.2410     0.0040    -5.1240 c3         1 53N      -0.006100
@<TRIPOS>BOND
     1     1     2 ar  
     2     1     6 ar  
     3     2     3 1   
     4     2     5 ar  
     5     3    10 1   
     6     3    16 2   
     7    29    11 1   
     8    29    12 1   
     9     4    11 2   
    10     4    16 1   
    11     5    17 ar  
    12     6     7 1   
    13     6    18 ar  
    14     7     8 1   
    15     7     9 1   
    16    10    11 1   
    17    12    13 1   
    18    13    14 1   
    19    13    15 1   
    20    17    18 ar  
    21     1    19 1   
    22    29    20 1   
    23    29    21 1   
    24     4    22 1   
    25     5    23 1   
    26    12    24 1   
    27    12    25 1   
    28    16    26 1   
    29    17    27 1   
    30    18    28 1   
@<TRIPOS>SUBSTRUCTURE
     1 53N         1 TEMP              0 ****  ****    0 ROOT
