@<TRIPOS>MOLECULE
molecule
   29    31     1     0     0
SMALL
bcc


@<TRIPOS>ATOM
      1 CAK          0.0000     0.0000     0.0000 cc         1 53O      -0.270600
      2 CAD          1.3460     0.0000     0.0000 cc         1 53O       0.317200
      3 NAO          1.7650     0.0000     1.2740 nc         1 53O      -0.689000
      4 CAL          0.7300     0.0010     2.0700 cd         1 53O       0.402400
      5 NBC         -0.3970     0.0010     1.3120 na         1 53O      -0.108000
      6 CAY         -1.7180     0.0070     1.7830 ca         1 53O       0.016800
      7 CAN         -1.9670     0.0130     3.1470 ca         1 53O      -0.144000
      8 CAI         -2.7770     0.0120     0.8840 ca         1 53O      -0.148000
      9 CAC         -4.0800     0.0170     1.3450 ca         1 53O      -0.101000
     10 CAH         -4.3370     0.0170     2.7010 ca         1 53O      -0.133000
     11 CAX         -3.2810     0.0180     3.6100 cp         1 53O      -0.004000
     12 CAW         -3.5550     0.0250     5.0680 cp         1 53O      -0.042000
     13 CAM         -2.5000     0.0320     5.9780 ca         1 53O      -0.114500
     14 CAG         -4.8690     0.0300     5.5330 ca         1 53O      -0.114500
     15 CAB         -5.1180     0.0360     6.8900 ca         1 53O      -0.125500
     16 CAF         -4.0670     0.0380     7.7890 ca         1 53O      -0.121000
     17 CAV         -2.7600     0.0380     7.3340 ca         1 53O      -0.125500
     18 H1          -0.6450    -0.0000    -0.8700 h4         1 53O       0.176000
     19 H2           1.9820    -0.0010    -0.8770 h4         1 53O       0.043100
     20 H3           0.7650     0.0020     3.1530 h5         1 53O       0.067100
     21 H4          -1.1430     0.0130     3.8500 ha         1 53O       0.142000
     22 H5          -2.5800     0.0120    -0.1810 ha         1 53O       0.140000
     23 H6          -4.9020     0.0190     0.6390 ha         1 53O       0.138000
     24 H7          -5.3590     0.0220     3.0580 ha         1 53O       0.139000
     25 H8          -1.4760     0.0310     5.6220 ha         1 53O       0.132000
     26 H9          -5.6930     0.0290     4.8300 ha         1 53O       0.132000
     27 H10         -6.1390     0.0390     7.2530 ha         1 53O       0.132500
     28 H11         -4.2670     0.0430     8.8540 ha         1 53O       0.132000
     29 H12         -1.9400     0.0410     8.0420 ha         1 53O       0.132500
@<TRIPOS>BOND
     1     2     3 1   
     2     2     1 2   
     3     3     4 2   
     4     1     5 1   
     5     4     5 1   
     6     5     6 1   
     7    17    13 ar  
     8    17    16 ar  
     9    13    12 ar  
    10     7     6 ar  
    11     7    11 ar  
    12     6     8 ar  
    13    16    15 ar  
    14    12    11 1   
    15    12    14 ar  
    16    11    10 ar  
    17     8     9 ar  
    18    15    14 ar  
    19    10     9 ar  
    20     1    18 1   
    21     2    19 1   
    22     4    20 1   
    23     7    21 1   
    24     8    22 1   
    25     9    23 1   
    26    10    24 1   
    27    13    25 1   
    28    14    26 1   
    29    15    27 1   
    30    16    28 1   
    31    17    29 1   
@<TRIPOS>SUBSTRUCTURE
     1 53O         1 TEMP              0 ****  ****    0 ROOT
