@<TRIPOS>MOLECULE
molecule
   40    42     1     0     0
SMALL
bcc


@<TRIPOS>ATOM
      1 C5           0.0000     0.0000     0.0000 c3         1 53Q       0.128700
      2 C6           2.0450     0.0000     1.2110 ca         1 53Q       0.145100
      3 C7           1.2880    -0.0050     2.3740 ca         1 53Q      -0.191000
      4 C8           1.9100    -0.0100     3.6040 ca         1 53Q      -0.073000
      5 C9           3.3040    -0.0110     3.6800 ca         1 53Q      -0.090800
      6 C10          4.0620    -0.0060     2.5080 ca         1 53Q      -0.073000
      7 C11          3.4330    -0.0010     1.2810 ca         1 53Q      -0.191000
      8 C12          3.9760    -0.0150     4.9970 ce         1 53Q       0.001600
      9 C13          3.8490    -1.0880     5.8200 cf         1 53Q       0.054200
     10 C14          3.1550    -2.2970     5.3500 ca         1 53Q      -0.061800
     11 C15          3.4760    -2.8530     4.1070 ca         1 53Q      -0.101000
     12 Cl           4.5060    -1.0320     7.4260 cl         1 53Q      -0.104400
     13 C19          2.1760    -2.9000     6.1460 ca         1 53Q      -0.101000
     14 C18          1.5310    -4.0340     5.6990 ca         1 53Q      -0.133000
     15 C17          1.8500    -4.5750     4.4660 ca         1 53Q      -0.119000
     16 C16          2.8220    -3.9860     3.6740 ca         1 53Q      -0.133000
     17 C20          4.7860     1.1490     5.4190 ca         1 53Q      -0.055800
     18 C25          4.1760     2.3850     5.6370 ca         1 53Q      -0.104500
     19 C24          4.9370     3.4660     6.0300 ca         1 53Q      -0.131000
     20 C23          6.3020     3.3280     6.2070 ca         1 53Q      -0.123000
     21 C22          6.9130     2.1050     5.9940 ca         1 53Q      -0.131000
     22 C21          6.1620     1.0130     5.6060 ca         1 53Q      -0.104500
     23 O            1.4290     0.0000     0.0000 os         1 53Q      -0.328900
     24 H1          -0.3610     0.0020    -1.0210 h1         1 53Q       0.041700
     25 H2          -0.3610     0.8840     0.5120 h1         1 53Q       0.041700
     26 H3          -0.3610    -0.8850     0.5090 h1         1 53Q       0.041700
     27 H4           0.2060    -0.0040     2.3160 ha         1 53Q       0.141000
     28 H5           1.3180    -0.0130     4.5110 ha         1 53Q       0.139500
     29 H6           5.1440    -0.0070     2.5620 ha         1 53Q       0.139500
     30 H7           4.0210     0.0030     0.3710 ha         1 53Q       0.141000
     31 H8           4.2360    -2.3940     3.4870 ha         1 53Q       0.140000
     32 H9           1.9250    -2.4780     7.1120 ha         1 53Q       0.140000
     33 H10          0.7710    -4.5010     6.3140 ha         1 53Q       0.132000
     34 H11          1.3400    -5.4660     4.1200 ha         1 53Q       0.129000
     35 H12          3.0680    -4.4170     2.7110 ha         1 53Q       0.132000
     36 H13          3.1070     2.4950     5.4980 ha         1 53Q       0.135000
     37 H14          4.4650     4.4260     6.1990 ha         1 53Q       0.130500
     38 H15          6.8950     4.1810     6.5140 ha         1 53Q       0.128000
     39 H16          7.9820     2.0020     6.1370 ha         1 53Q       0.130500
     40 H17          6.6410     0.0560     5.4390 ha         1 53Q       0.135000
@<TRIPOS>BOND
     1     1    23 1
     2    23     2 1
     3     2     7 ar
     4     2     3 ar
     5     7     6 ar
     6     3     4 ar
     7     6     5 ar
     8     4     5 ar
     9    19    18 ar
    10    19    20 ar
    11    18    17 ar
    12     5     8 1
    13    20    21 ar
    14    17     8 1
    15    17    22 ar
    16     8     9 2
    17    21    22 ar
    18     9    10 1
    19     9    12 1
    20    11    10 ar
    21    11    16 ar
    22    10    13 ar
    23    16    15 ar
    24    13    14 ar
    25    15    14 ar
    26     1    24 1
    27     1    25 1
    28     1    26 1
    29     3    27 1
    30     4    28 1
    31     6    29 1
    32     7    30 1
    33    11    31 1
    34    13    32 1
    35    14    33 1
    36    15    34 1
    37    16    35 1
    38    18    36 1
    39    19    37 1
    40    20    38 1
    41    21    39 1
    42    22    40 1
@<TRIPOS>SUBSTRUCTURE
     1 53Q         1 TEMP              0 ****  ****    0 ROOT
