@<TRIPOS>MOLECULE
53Q
   40    42     1     0     0
SMALL
bcc


@<TRIPOS>ATOM
      1 C5          0.1080    0.1720   -0.2170 c3        1 53Q      0.113700
      2 C6          2.0180    0.3110    1.1970 ca        1 53Q      0.131100
      3 C7          1.2960   -0.1450    2.3050 ca        1 53Q     -0.183500
      4 C8          1.9440   -0.2860    3.5310 ca        1 53Q     -0.075500
      5 C9          3.3010    0.0260    3.6640 ca        1 53Q     -0.091800
      6 C10         4.0110    0.4910    2.5440 ca        1 53Q     -0.075500
      7 C11         3.3840    0.6310    1.3140 ca        1 53Q     -0.183500
      8 C12         3.9830   -0.0960    4.9560 ce        1 53Q      0.014600
      9 C13         3.8790   -1.1910    5.7400 cf        1 53Q      0.050200
     10 C14         3.1310   -2.4070    5.4200 ca        1 53Q     -0.061800
     11 C15         3.6350   -3.3200    4.4840 ca        1 53Q     -0.105000
     12 CL          4.6640   -1.2620    7.2590 cl        1 53Q     -0.101400
     13 C19         1.9230   -2.6840    6.0760 ca        1 53Q     -0.105000
     14 C18         1.2270   -3.8560    5.7910 ca        1 53Q     -0.133000
     15 C17         1.7300   -4.7610    4.8560 ca        1 53Q     -0.121000
     16 C16         2.9330   -4.4920    4.2050 ca        1 53Q     -0.133000
     17 C20         4.7980    1.0660    5.3470 ca        1 53Q     -0.057800
     18 C25         4.1860    2.1970    5.9010 ca        1 53Q     -0.109500
     19 C24         4.9560    3.3030    6.2590 ca        1 53Q     -0.131500
     20 C23         6.3370    3.2890    6.0640 ca        1 53Q     -0.125000
     21 C22         6.9490    2.1650    5.5100 ca        1 53Q     -0.131500
     22 C21         6.1850    1.0560    5.1520 ca        1 53Q     -0.109500
     23 O           1.4870    0.4870   -0.0660 os        1 53Q     -0.326900
     24 H1         -0.5200    0.8250    0.4360 h1        1 53Q      0.044700
     25 H2         -0.0900    0.3860   -1.2980 h1        1 53Q      0.044700
     26 H3         -0.0780   -0.9060    0.0120 h1        1 53Q      0.044700
     27 H4          0.2290   -0.3960    2.2240 ha        1 53Q      0.144500
     28 H5          1.3830   -0.6560    4.4040 ha        1 53Q      0.141500
     29 H6          5.0770    0.7490    2.6490 ha        1 53Q      0.141500
     30 H7          3.9330    0.9890    0.4320 ha        1 53Q      0.144500
     31 H8          4.5840   -3.1090    3.9700 ha        1 53Q      0.139000
     32 H9          1.5310   -1.9740    6.8200 ha        1 53Q      0.139000
     33 H10         0.2800   -4.0690    6.3090 ha        1 53Q      0.133500
     34 H11         1.1790   -5.6870    4.6350 ha        1 53Q      0.132000
     35 H12         3.3330   -5.2050    3.4690 ha        1 53Q      0.133500
     36 H13         3.0970    2.2110    6.0540 ha        1 53Q      0.136500
     37 H14         4.4710    4.1870    6.6970 ha        1 53Q      0.132000
     38 H15         6.9420    4.1620    6.3480 ha        1 53Q      0.131000
     39 H16         8.0380    2.1510    5.3560 ha        1 53Q      0.132000
     40 H17         6.6700    0.1680    4.7200 ha        1 53Q      0.136500
@<TRIPOS>BOND
     1    1   23 1   
     2    1   24 1   
     3    1   25 1   
     4    1   26 1   
     5    2    3 ar  
     6    2    7 ar  
     7    2   23 1   
     8    3    4 ar  
     9    3   27 1   
    10    4    5 ar  
    11    4   28 1   
    12    5    6 ar  
    13    5    8 1   
    14    6    7 ar  
    15    6   29 1   
    16    7   30 1   
    17    8    9 2   
    18    8   17 1   
    19    9   10 1   
    20    9   12 1   
    21   10   11 ar  
    22   10   13 ar  
    23   11   16 ar  
    24   11   31 1   
    25   13   14 ar  
    26   13   32 1   
    27   14   15 ar  
    28   14   33 1   
    29   15   16 ar  
    30   15   34 1   
    31   16   35 1   
    32   17   18 ar  
    33   17   22 ar  
    34   18   19 ar  
    35   18   36 1   
    36   19   20 ar  
    37   19   37 1   
    38   20   21 ar  
    39   20   38 1   
    40   21   22 ar  
    41   21   39 1   
    42   22   40 1   
@<TRIPOS>SUBSTRUCTURE
     1 53Q         1 TEMP              0 ****  ****    0 ROOT
