@<TRIPOS>MOLECULE
molecule
   49    51     1     0     0
SMALL
bcc


@<TRIPOS>ATOM
      1 C20          0.0000     0.0000     0.0000 ca         1 53R      -0.117000
      2 C21          1.3800     0.0000     0.0000 ca         1 53R      -0.127000
      3 C22          2.0740     0.0000     1.1970 ca         1 53R      -0.125000
      4 C23          1.3900    -0.0000     2.3990 ca         1 53R      -0.127000
      5 C24          0.0100    -0.0010     2.4110 ca         1 53R      -0.117000
      6 C25         -0.6940    -0.0010     1.2080 cp         1 53R      -0.036000
      7 C18         -2.1780    -0.0010     1.2150 cp         1 53R       0.005000
      8 C19         -2.8710    -0.0020     2.4230 ca         1 53R      -0.152000
      9 C17         -2.8820     0.0050     0.0130 ca         1 53R      -0.214000
     10 C16         -4.2660     0.0050     0.0250 ca         1 53R       0.144100
     11 O17         -4.9560     0.0110    -1.1460 os         1 53R      -0.327900
     12 C2          -4.1890     0.0180    -2.3510 c3         1 53R       0.127700
     13 C15         -4.9500    -0.0020     1.2330 ca         1 53R      -0.145000
     14 C14         -4.2520    -0.0020     2.4260 ca         1 53R      -0.044300
     15 C12         -5.0010    -0.0020     3.7340 c3         1 53R       0.071700
     16 C13         -5.8800     1.2460     3.8190 c3         1 53R      -0.083100
     17 C11         -5.8460    -1.2040     3.8140 c1         1 53R      -0.161100
     18 C10         -6.5040    -2.1750     3.8770 cg         1 53R      -0.074000
     19 C6          -7.6030    -3.1640     3.7430 ca         1 53R      -0.365600
     20 C5          -7.4190    -4.4940     3.5560 ca         1 53R       0.587600
     21 C8          -6.0360    -4.7050     3.3790 c3         1 53R      -0.154400
     22 N4          -8.4150    -5.1170     3.4720 nb         1 53R      -0.778000
     23 C3          -9.8920    -4.6150     3.5470 ca         1 53R       0.931900
     24 N7         -11.0240    -5.4650     3.2880 nv         1 53R      -1.075500
     25 N2         -10.3660    -3.4110     3.7170 nb         1 53R      -0.646000
     26 C1          -9.0840    -2.6470     3.8190 ca         1 53R       0.657200
     27 N9          -9.3190    -1.1930     4.0770 nv         1 53R      -1.016500
     28 H20         -0.5420    -0.0000    -0.9380 ha         1 53R       0.132000
     29 H21          1.9220     0.0000    -0.9380 ha         1 53R       0.130500
     30 H22          3.1580    -0.0000     1.1950 ha         1 53R       0.130000
     31 H23          1.9370    -0.0000     3.3340 ha         1 53R       0.130500
     32 H24         -0.5230    -0.0020     3.3540 ha         1 53R       0.132000
     33 H19         -2.3280    -0.0220     3.3600 ha         1 53R       0.135000
     34 H17         -2.3460     0.0450    -0.9280 ha         1 53R       0.139000
     35 H2          -3.6790     0.9680    -2.4500 h1         1 53R       0.041367
     36 H2A         -4.8470    -0.1290    -3.1990 h1         1 53R       0.041367
     37 H2B         -3.4580    -0.7820    -2.3190 h1         1 53R       0.041367
     38 H15         -6.0330    -0.0020     1.2420 ha         1 53R       0.149000
     39 H12         -4.2940    -0.0030     4.5550 hc         1 53R       0.068700
     40 H13         -6.3340     1.4340     2.8540 hc         1 53R       0.042367
     41 H13A        -6.6560     1.0920     4.5590 hc         1 53R       0.042367
     42 H13B        -5.2730     2.0970     4.1050 hc         1 53R       0.042367
     43 H8          -5.6930    -4.1470     2.5170 hc         1 53R       0.064033
     44 H8A         -5.8490    -5.7610     3.2230 hc         1 53R       0.064033
     45 H8B         -5.5030    -4.3710     4.2610 hc         1 53R       0.064033
     46 HN7        -11.2270    -5.7570     2.3530 hn         1 53R       0.444300
     47 HN7A       -11.5940    -5.7840     4.0470 hn         1 53R       0.444300
     48 HN9        -10.2520    -0.8470     4.1780 hn         1 53R       0.442300
     49 HN9A        -8.5430    -0.5630     4.1290 hn         1 53R       0.442300
@<TRIPOS>BOND
     1     1     2 ar  
     2     1     6 ar  
     3     2     3 ar  
     4     3     4 ar  
     5     4     5 ar  
     6     5     6 ar  
     7     6     7 1   
     8     7     8 ar  
     9     7     9 ar  
    10     8    14 ar  
    11     9    10 ar  
    12    10    11 1   
    13    10    13 ar  
    14    11    12 1   
    15    13    14 ar  
    16    14    15 1   
    17    15    16 1   
    18    15    17 1   
    19    17    18 3   
    20    18    19 1   
    21    19    20 ar  
    22    19    26 ar  
    23    20    21 1   
    24    20    22 ar  
    25    22    23 ar  
    26    23    24 1   
    27    23    25 ar  
    28    25    26 ar  
    29    26    27 1   
    30     1    28 1   
    31     2    29 1   
    32     3    30 1   
    33     4    31 1   
    34     5    32 1   
    35     8    33 1   
    36     9    34 1   
    37    12    35 1   
    38    12    36 1   
    39    12    37 1   
    40    13    38 1   
    41    15    39 1   
    42    16    40 1   
    43    16    41 1   
    44    16    42 1   
    45    21    43 1   
    46    21    44 1   
    47    21    45 1   
    48    24    46 1   
    49    24    47 1   
    50    27    48 1   
    51    27    49 1   
@<TRIPOS>SUBSTRUCTURE
     1 53R         1 TEMP              0 ****  ****    0 ROOT
