@<TRIPOS>MOLECULE
53R
   49    51     1     0     0
SMALL
bcc


@<TRIPOS>ATOM
      1 C20          0.0000     0.0000     0.0000 ca         1 53R      -0.097500
      2 C21          1.3800     0.0000     0.0000 ca         1 53R      -0.098500
      3 C22          2.0740     0.0000     1.1970 ca         1 53R      -0.100000
      4 C23          1.3900    -0.0000     2.3990 ca         1 53R      -0.098500
      5 C24          0.0100    -0.0010     2.4110 ca         1 53R      -0.097500
      6 C25         -0.6940    -0.0010     1.2080 cp         1 53R      -0.033000
      7 C18         -2.1780    -0.0010     1.2150 cp         1 53R       0.016000
      8 C19         -2.8710    -0.0020     2.4230 ca         1 53R      -0.136000
      9 C17         -2.8820     0.0050     0.0130 ca         1 53R      -0.212000
     10 C16         -4.2660     0.0050     0.0250 ca         1 53R       0.156100
     11 O17         -4.9560     0.0110    -1.1460 os         1 53R      -0.307900
     12 C2          -4.1890     0.0180    -2.3510 c3         1 53R       0.242700
     13 C15         -4.9500    -0.0020     1.2330 ca         1 53R      -0.133000
     14 C14         -4.2520    -0.0020     2.4260 ca         1 53R      -0.052300
     15 C12         -5.0010    -0.0020     3.7340 c3         1 53R       0.141700
     16 C13         -5.8800     1.2460     3.8190 c3         1 53R       0.000900
     17 C11         -5.8460    -1.2040     3.8140 c1         1 53R      -0.173100
     18 C10         -6.5040    -2.1750     3.8770 cg         1 53R      -0.068000
     19 C6          -7.6030    -3.1640     3.7430 ca         1 53R      -0.337600
     20 C5          -7.4190    -4.4940     3.5560 ca         1 53R       0.509600
     21 C8          -6.0360    -4.7050     3.3790 c3         1 53R      -0.065400
     22 N4          -8.4150    -5.1170     3.4720 nb         1 53R      -0.640000
     23 C3          -9.8920    -4.6150     3.5470 ca         1 53R       0.762900
     24 N7         -11.0240    -5.4650     3.2880 nv         1 53R      -0.658500
     25 N2         -10.3660    -3.4110     3.7170 nb         1 53R      -0.642000
     26 C1          -9.0840    -2.6470     3.8190 ca         1 53R       0.510200
     27 N9          -9.3190    -1.1930     4.0770 nv         1 53R      -0.547500
     28 H20         -0.5420    -0.0000    -0.9380 ha         1 53R       0.110000
     29 H21          1.9220     0.0000    -0.9380 ha         1 53R       0.102500
     30 H22          3.1580    -0.0000     1.1950 ha         1 53R       0.102000
     31 H23          1.9370    -0.0000     3.3340 ha         1 53R       0.102500
     32 H24         -0.5230    -0.0020     3.3540 ha         1 53R       0.110000
     33 H19         -2.3280    -0.0220     3.3600 ha         1 53R       0.117000
     34 H17         -2.3460     0.0450    -0.9280 ha         1 53R       0.130000
     35 H2          -3.6790     0.9680    -2.4500 h1         1 53R      -0.002300
     36 H2A         -4.8470    -0.1290    -3.1990 h1         1 53R      -0.002300
     37 H2B         -3.4580    -0.7820    -2.3190 h1         1 53R      -0.002300
     38 H15         -6.0330    -0.0020     1.2420 ha         1 53R       0.124000
     39 H12         -4.2940    -0.0030     4.5550 hc         1 53R       0.032700
     40 H13         -6.3340     1.4340     2.8540 hc         1 53R       0.008700
     41 H13A        -6.6560     1.0920     4.5590 hc         1 53R       0.008700
     42 H13B        -5.2730     2.0970     4.1050 hc         1 53R       0.008700
     43 H8          -5.6930    -4.1470     2.5170 hc         1 53R       0.026033
     44 H8A         -5.8490    -5.7610     3.2230 hc         1 53R       0.026033
     45 H8B         -5.5030    -4.3710     4.2610 hc         1 53R       0.026033
     46 HN7        -11.2270    -5.7570     2.3530 hn         1 53R       0.283300
     47 HN7A       -11.5940    -5.7840     4.0470 hn         1 53R       0.283300
     48 HN9        -10.2520    -0.8470     4.1780 hn         1 53R       0.280800
     49 HN9A        -8.5430    -0.5630     4.1290 hn         1 53R       0.280800
@<TRIPOS>BOND
     1     1     2 ar  
     2     1     6 ar  
     3     1    28 1   
     4     2     3 ar  
     5     2    29 1   
     6     3     4 ar  
     7     3    30 1   
     8     4     5 ar  
     9     4    31 1   
    10     5     6 ar  
    11     5    32 1   
    12     6     7 1   
    13     7     8 ar  
    14     7     9 ar  
    15     8    14 ar  
    16     8    33 1   
    17     9    10 ar  
    18     9    34 1   
    19    10    11 1   
    20    10    13 ar  
    21    11    12 1   
    22    12    35 1   
    23    12    36 1   
    24    12    37 1   
    25    13    14 ar  
    26    13    38 1   
    27    14    15 1   
    28    15    16 1   
    29    15    17 1   
    30    15    39 1   
    31    16    40 1   
    32    16    41 1   
    33    16    42 1   
    34    17    18 3   
    35    18    19 1   
    36    19    20 ar  
    37    19    26 ar  
    38    20    21 1   
    39    20    22 ar  
    40    21    43 1   
    41    21    44 1   
    42    21    45 1   
    43    22    23 ar  
    44    23    24 1   
    45    23    25 ar  
    46    24    46 1   
    47    24    47 1   
    48    25    26 ar  
    49    26    27 1   
    50    27    48 1   
    51    27    49 1   
@<TRIPOS>SUBSTRUCTURE
     1 53R         1 TEMP              0 ****  ****    0 ROOT
