@<TRIPOS>MOLECULE
53S
   52    54     1     0     0
SMALL
bcc


@<TRIPOS>ATOM
      1 C6         -0.1980   -0.1510    0.1180 ca        1 53S     -0.337600
      2 C5          1.1990   -0.0750   -0.1190 ca        1 53S      0.538600
      3 C2          1.3780   -2.2500   -7.1360 c3        1 53S      0.113700
      4 C20        -4.1460   -5.1140   -6.0610 ca        1 53S     -0.113500
      5 C21        -4.7250   -6.2940   -6.5180 ca        1 53S     -0.132000
      6 C22        -3.9290   -7.4030   -6.8280 ca        1 53S     -0.072300
      7 C26        -4.5460   -8.6530   -7.3260 c3        1 53S     -0.054800
      8 C23        -2.5420   -7.3090   -6.6710 ca        1 53S     -0.132000
      9 C24        -1.9590   -6.1290   -6.2180 ca        1 53S     -0.113500
     10 C25        -2.7550   -5.0180   -5.9080 cp        1 53S     -0.046000
     11 C18        -2.1460   -3.7780   -5.4280 cp        1 53S      0.000000
     12 C19        -2.7350   -3.0620   -4.3810 ca        1 53S     -0.149000
     13 C17        -0.9660   -3.3040   -6.0200 ca        1 53S     -0.193000
     14 C16        -0.3950   -2.1180   -5.5510 ca        1 53S      0.123100
     15 O17         0.7640   -1.5570   -6.0570 os        1 53S     -0.327900
     16 C15        -0.9830   -1.3960   -4.4970 ca        1 53S     -0.142000
     17 C14        -2.1550   -1.8750   -3.9170 ca        1 53S     -0.045300
     18 C12        -2.8150   -1.1130   -2.8000 c3        1 53S      0.069700
     19 C13        -3.5070    0.1280   -3.3510 c3        1 53S     -0.086100
     20 C11        -1.8760   -0.7660   -1.7660 c1        1 53S     -0.151100
     21 C10        -1.1000   -0.4840   -0.8960 cg        1 53S     -0.083000
     22 C8          1.7130   -0.3660   -1.4950 c3        1 53S     -0.158400
     23 N4          2.0850    0.2370    0.8460 nb        1 53S     -0.790000
     24 C3          1.5680    0.4640    2.1180 ca        1 53S      0.913900
     25 N7          2.4840    0.6760    3.1520 nh        1 53S     -0.931500
     26 N2          0.2290    0.4420    2.4590 nb        1 53S     -0.830000
     27 C1         -0.6520    0.1410    1.4550 ca        1 53S      0.740200
     28 N9         -2.0060    0.1740    1.7320 nh        1 53S     -0.951500
     29 H2          1.6960   -3.2730   -6.8190 h1        1 53S      0.044700
     30 H2A         0.6890   -2.3090   -8.0130 h1        1 53S      0.044700
     31 H2B         2.2710   -1.6180   -7.3770 h1        1 53S      0.044700
     32 H21        -5.8170   -6.3560   -6.6370 ha        1 53S      0.132000
     33 H26        -4.6110   -8.6270   -8.4440 hc        1 53S      0.045033
     34 H26A       -3.9380   -9.5450   -7.0330 hc        1 53S      0.045033
     35 H26B       -5.5800   -8.7810   -6.9200 hc        1 53S      0.045033
     36 H23        -1.9070   -8.1770   -6.9060 ha        1 53S      0.132000
     37 H24        -0.8680   -6.0700   -6.0920 ha        1 53S      0.134500
     38 H19        -3.6560   -3.4430   -3.9140 ha        1 53S      0.137000
     39 H17        -0.5110   -3.8680   -6.8470 ha        1 53S      0.141000
     40 H15        -0.5110   -0.4690   -4.1400 ha        1 53S      0.154000
     41 H12        -3.6070   -1.7770   -2.3330 hc        1 53S      0.065700
     42 H13        -4.0090    0.6860   -2.5250 hc        1 53S      0.043367
     43 H13A       -2.7660    0.8020   -3.8420 hc        1 53S      0.043367
     44 H13B       -4.2740   -0.1710   -4.1050 hc        1 53S      0.043367
     45 H8          0.9900    0.0150   -2.2580 hc        1 53S      0.062700
     46 H8A         2.7120    0.1000   -1.6780 hc        1 53S      0.062700
     47 H8B         1.8090   -1.4740   -1.6170 hc        1 53S      0.062700
     48 HN7         3.4080    0.9270    2.8880 hn        1 53S      0.429800
     49 HN7A        2.1350    1.0740    3.9910 hn        1 53S      0.429800
     50 HN9        -2.6090   -0.2510    1.0690 hn        1 53S      0.432800
     51 HN9A       -2.3060    0.2100    2.6760 hn        1 53S      0.432800
     52 H20        -4.7810   -4.2460   -5.8250 ha        1 53S      0.134500
@<TRIPOS>BOND
     1    1    2 ar  
     2    1   21 1   
     3    1   27 ar  
     4    2   22 1   
     5    2   23 ar  
     6    3   15 1   
     7    3   29 1   
     8    3   30 1   
     9    3   31 1   
    10    4    5 ar  
    11    4   10 ar  
    12    4   52 1   
    13    5    6 ar  
    14    5   32 1   
    15    6    7 1   
    16    6    8 ar  
    17    7   33 1   
    18    7   34 1   
    19    7   35 1   
    20    8    9 ar  
    21    8   36 1   
    22    9   10 ar  
    23    9   37 1   
    24   10   11 1   
    25   11   12 ar  
    26   11   13 ar  
    27   12   17 ar  
    28   12   38 1   
    29   13   14 ar  
    30   13   39 1   
    31   14   15 1   
    32   14   16 ar  
    33   16   17 ar  
    34   16   40 1   
    35   17   18 1   
    36   18   19 1   
    37   18   20 1   
    38   18   41 1   
    39   19   42 1   
    40   19   43 1   
    41   19   44 1   
    42   20   21 3   
    43   22   45 1   
    44   22   46 1   
    45   22   47 1   
    46   23   24 ar  
    47   24   25 1   
    48   24   26 ar  
    49   25   48 1   
    50   25   49 1   
    51   26   27 ar  
    52   27   28 1   
    53   28   50 1   
    54   28   51 1   
@<TRIPOS>SUBSTRUCTURE
     1 53S         1 TEMP              0 ****  ****    0 ROOT
