@<TRIPOS>MOLECULE
molecule
   52    54     1     0     0
SMALL
bcc


@<TRIPOS>ATOM
      1 C6           0.0000     0.0000     0.0000 ca         1 53S      -0.362600
      2 C5           1.3960     0.0000     0.0000 ca         1 53S       0.560600
      3 C2           0.6900     4.4810    -4.5340 c3         1 53S       0.111700
      4 C20          2.0240     0.8300    -7.3300 ca         1 53S      -0.128000
      5 C21          3.2570     1.2100    -8.1210 ca         1 53S      -0.097500
      6 C22          2.9300     2.4000    -8.8470 ca         1 53S      -0.111300
      7 C26          4.2010     2.9570    -9.7860 c3         1 53S      -0.084800
      8 C23          1.7820     2.9620    -9.4410 ca         1 53S      -0.097500
      9 C24          0.5200     2.7600    -8.3290 ca         1 53S      -0.128000
     10 C25          0.8100     1.6190    -7.3970 cp         1 53S      -0.017000
     11 C18         -0.9100     1.0230    -6.8640 cp         1 53S      -0.164000
     12 C19         -1.3950     0.1890    -5.6730 ca         1 53S      -0.103000
     13 C17         -0.8870     2.4710    -6.6530 ca         1 53S      -0.069000
     14 C16         -0.9120     2.8430    -5.2020 ca         1 53S       0.028100
     15 O17         -0.7700     4.4180    -4.9760 os         1 53S      -0.364900
     16 C15         -1.6740     2.1440    -4.5280 ca         1 53S      -0.074000
     17 C14         -1.8010     0.8860    -4.4130 ca         1 53S      -0.105300
     18 C12         -2.2610    -0.0280    -3.3080 c3         1 53S       0.069700
     19 C13         -3.7350     0.5330    -2.7480 c3         1 53S      -0.077100
     20 C11         -1.3190     0.0010    -2.2470 c1         1 53S      -0.157100
     21 C10         -0.7350    -0.0010    -1.2290 cg         1 53S      -0.077000
     22 C8           2.1590     0.0010    -1.2990 c3         1 53S      -0.144400
     23 N4           2.0380     0.0000     1.1560 nb         1 53S      -0.843000
     24 C3           1.3790    -0.0010     2.3060 ca         1 53S       0.991900
     25 N7           2.0950    -0.0000     3.4890 nv         1 53S      -0.985500
     26 N2           0.0550    -0.0010     2.3560 nb         1 53S      -0.879000
     27 C1          -0.6670    -0.0070     1.2410 ca         1 53S       0.791200
     28 N9          -2.0480    -0.0090     1.2990 nv         1 53S      -0.990500
     29 H2           1.0220     5.5130    -4.5290 h1         1 53S       0.038367
     30 H2A          1.3010     3.9090    -5.2210 h1         1 53S       0.038367
     31 H2B          0.7840     4.0680    -3.5370 h1         1 53S       0.038367
     32 H21          4.2040     0.6850    -8.1330 ha         1 53S       0.164500
     33 H26          4.1450     4.0360    -9.8670 hc         1 53S       0.037367
     34 H26A         4.1410     2.5170   -10.7740 hc         1 53S       0.037367
     35 H26B         5.1400     2.6780    -9.3240 hc         1 53S       0.037367
     36 H23          1.7720     3.8500   -10.0610 ha         1 53S       0.164500
     37 H24         -0.4710     3.1890    -8.4210 ha         1 53S       0.158000
     38 H19         -0.7630    -0.5990    -5.2820 ha         1 53S       0.134000
     39 H17         -1.0540     3.1420    -7.4860 ha         1 53S       0.195000
     40 H15         -1.7240     2.4860    -3.5010 ha         1 53S       0.122000
     41 H12         -2.3440    -1.0490    -3.6620 hc         1 53S       0.084700
     42 H13         -3.5800     1.4290    -2.1590 hc         1 53S       0.041033
     43 H13A        -4.3790     0.7600    -3.5890 hc         1 53S       0.041033
     44 H13B        -4.2010    -0.2270    -2.1320 hc         1 53S       0.041033
     45 H8           1.9030    -0.8840    -1.8690 hc         1 53S       0.058367
     46 H8A          1.9000     0.8850    -1.8690 hc         1 53S       0.058367
     47 H8B          3.2220     0.0040    -1.0930 hc         1 53S       0.058367
     48 HN7          3.0960    -0.0060     3.4680 hn         1 53S       0.450800
     49 HN7A         1.6130     0.0010     4.3660 hn         1 53S       0.450800
     50 HN9         -2.5110    -0.0290     2.1860 hn         1 53S       0.447300
     51 HN9A        -2.5840     0.0010     0.4540 hn         1 53S       0.447300
     52 H20          2.0700    -0.0170    -6.6560 ha         1 53S       0.158000
@<TRIPOS>BOND
     1     1     2 ar
     2     1    21 1
     3     1    27 ar
     4     2    22 1
     5     2    23 ar
     6     3    15 1
     7     4     5 ar
     8     4    10 ar
     9     5     6 ar
    10     6     7 1
    11     6     8 ar
    12     8     9 ar
    13     9    10 ar
    14    10    11 1
    15    11    12 ar
    16    11    13 ar
    17    12    17 ar
    18    13    14 ar
    19    14    15 1
    20    14    16 ar
    21    16    17 ar
    22    17    18 1
    23    18    19 1
    24    18    20 1
    25    20    21 3
    26    23    24 ar
    27    24    25 1
    28    24    26 ar
    29    26    27 ar
    30    27    28 1
    31     3    29 1
    32     3    30 1
    33     3    31 1
    34     4    52 1
    35     5    32 1
    36     7    33 1
    37     7    34 1
    38     7    35 1
    39     8    36 1
    40     9    37 1
    41    12    38 1
    42    13    39 1
    43    16    40 1
    44    18    41 1
    45    19    42 1
    46    19    43 1
    47    19    44 1
    48    22    45 1
    49    22    46 1
    50    22    47 1
    51    25    48 1
    52    25    49 1
    53    28    50 1
    54    28    51 1
@<TRIPOS>SUBSTRUCTURE
     1 53S         1 TEMP              0 ****  ****    0 ROOT
