@<TRIPOS>MOLECULE
53T
   55    57     1     0     0
SMALL
bcc


@<TRIPOS>ATOM
      1 N2           0.0000     0.0000     0.0000 nb         1 53T      -0.708000
      2 C8           1.9260    -0.0020     3.7530 c3         1 53T      -0.047400
      3 C10          3.4400     0.0000     1.2840 cg         1 53T      -0.099000
      4 C11          4.6140    -0.0180     1.3170 c1         1 53T      -0.167100
      5 C12          6.2580     0.1330     1.1320 c3         1 53T       0.156700
      6 C13          6.9070    -1.3370     1.2710 c3         1 53T       0.018900
      7 C1           1.3280     0.0000     0.0000 ca         1 53T       0.594200
      8 C2          10.7050     3.3760     1.5550 c3         1 53T       0.308700
      9 C3          -0.6770    -0.0010     1.1400 ca         1 53T       0.717900
     10 C5           1.2510    -0.0010     2.4050 ca         1 53T       0.473600
     11 C6           2.0090     0.0000     1.2340 ca         1 53T      -0.261600
     12 C21          5.3570     6.6780    -1.5710 ca         1 53T      -0.073800
     13 C20          5.8060     5.4080    -1.6010 ca         1 53T      -0.115000
     14 C22          5.6440     7.4330    -0.5090 ca         1 53T      -0.073000
     15 C23          6.1670     7.4530     0.4920 ca         1 53T      -0.073800
     16 C27          6.0970     8.4940     1.5730 c3         1 53T       0.100700
     17 C24          6.7360     6.0670     0.6100 ca         1 53T      -0.115000
     18 C25          6.6550     4.9220    -0.3330 cp         1 53T      -0.056000
     19 C18          6.8160     3.4890    -0.2250 cp         1 53T      -0.004000
     20 C19          6.0300     2.4480     0.1700 ca         1 53T      -0.005000
     21 C17          8.0460     3.4920     0.1840 ca         1 53T      -0.162000
     22 C16          8.8000     2.5510     0.1650 ca         1 53T       0.154100
     23 O17         10.1270     2.6760     0.5890 os         1 53T      -0.384900
     24 C15          7.9760     1.3960     0.6290 ca         1 53T      -0.088000
     25 C14          6.7360     1.2250     0.1660 ca         1 53T      -0.086300
     26 N4          -0.0700    -0.0020     2.3170 nb         1 53T      -0.698000
     27 N7          -2.0590    -0.0020     1.0970 nv         1 53T      -0.506500
     28 N9           2.0310     0.0010    -1.1910 nv         1 53T      -0.651500
     29 H8           1.2480     0.3980     4.4970 hc         1 53T       0.019367
     30 H8A          2.1990    -1.0160     4.0200 hc         1 53T       0.019367
     31 H8B          2.8180     0.6120     3.7100 hc         1 53T       0.019367
     32 H12          6.5480     0.5750     2.0780 hc         1 53T       0.008700
     33 H13          6.1550    -2.0310     1.6250 hc         1 53T       0.009367
     34 H13A         7.2740    -1.6630     0.3050 hc         1 53T       0.009367
     35 H13B         7.7290    -1.3030     1.9760 hc         1 53T       0.009367
     36 H2          10.8350     4.4010     1.2290 h1         1 53T      -0.022633
     37 H2A         11.6710     2.9450     1.7850 h1         1 53T      -0.022633
     38 H2B         10.0800     3.3550     2.4390 h1         1 53T      -0.022633
     39 H26          4.3810     7.7840    -3.3060 hc         1 53T       0.004533
     40 H26A         5.6550     6.6720    -3.8290 hc         1 53T       0.004533
     41 H26B         4.0750     6.0420    -3.3420 hc         1 53T       0.004533
     42 H20          5.8570     4.8490    -2.5280 ha         1 53T       0.095000
     43 H22          5.7570     8.4700    -0.8000 ha         1 53T       0.063000
     44 H27          5.5200     9.3410     1.2220 hc         1 53T       0.004533
     45 H27A         5.6220     8.0720     2.4510 hc         1 53T       0.004533
     46 H27B         7.0990     8.8200     1.8260 hc         1 53T       0.004533
     47 H24          7.3730     5.9220     1.4740 ha         1 53T       0.095000
     48 H19          4.9920     2.4070    -0.1370 ha         1 53T       0.111000
     49 H17          8.4930     4.4570     0.3950 ha         1 53T       0.117000
     50 H15          8.5230     0.4670     0.7330 ha         1 53T       0.103000
     51 HN7         -2.5850    -0.2650     1.9070 hn         1 53T       0.274800
     52 HN7A        -2.5340     0.2610     0.2560 hn         1 53T       0.274800
     53 HN9          2.2610     0.8680    -1.6350 hn         1 53T       0.280800
     54 HN9A         2.3350    -0.8630    -1.5930 hn         1 53T       0.280800
     55 C26          4.8190     6.8050    -3.1520 c3         1 53T       0.100700
@<TRIPOS>BOND
     1     1     7 ar  
     2     1     9 ar  
     3     2    10 1   
     4     2    29 1   
     5     2    30 1   
     6     2    31 1   
     7     3     4 3   
     8     3    11 1   
     9     4     5 1   
    10     5     6 1   
    11     5    25 1   
    12     5    32 1   
    13     6    33 1   
    14     6    34 1   
    15     6    35 1   
    16     7    11 ar  
    17     7    28 1   
    18     8    23 1   
    19     8    36 1   
    20     8    37 1   
    21     8    38 1   
    22     9    26 ar  
    23     9    27 1   
    24    10    11 ar  
    25    10    26 ar  
    26    12    13 ar  
    27    12    14 ar  
    28    12    55 1   
    29    13    18 ar  
    30    13    42 1   
    31    14    15 ar  
    32    14    43 1   
    33    15    16 1   
    34    15    17 ar  
    35    16    44 1   
    36    16    45 1   
    37    16    46 1   
    38    17    18 ar  
    39    17    47 1   
    40    18    19 1   
    41    19    20 ar  
    42    19    21 ar  
    43    20    25 ar  
    44    20    48 1   
    45    21    22 ar  
    46    21    49 1   
    47    22    23 1   
    48    22    24 ar  
    49    24    25 ar  
    50    24    50 1   
    51    27    51 1   
    52    27    52 1   
    53    28    53 1   
    54    28    54 1   
    55    39    55 1   
    56    40    55 1   
    57    41    55 1   
@<TRIPOS>SUBSTRUCTURE
     1 53T         1 TEMP              0 ****  ****    0 ROOT
