@<TRIPOS>MOLECULE
molecule
   55    57     1     0     0
SMALL
bcc


@<TRIPOS>ATOM
      1 N2           0.0000     0.0000     0.0000 nb         1 53T      -0.820000
      2 C8           1.9260    -0.0020     3.7530 c3         1 53T      -0.143400
      3 C10          3.4400     0.0000     1.2840 cg         1 53T      -0.103000
      4 C11          4.6140    -0.0180     1.3170 c1         1 53T      -0.153100
      5 C12          6.2580     0.1330     1.1320 c3         1 53T       0.070700
      6 C13          6.9070    -1.3370     1.2710 c3         1 53T      -0.073100
      7 C1           1.3280     0.0000     0.0000 ca         1 53T       0.775200
      8 C2          10.7050     3.3760     1.5550 c3         1 53T       0.195700
      9 C3          -0.6770    -0.0010     1.1400 ca         1 53T       0.958900
     10 C5           1.2510    -0.0010     2.4050 ca         1 53T       0.524600
     11 C6           2.0090     0.0000     1.2340 ca         1 53T      -0.289600
     12 C21          5.3570     6.6780    -1.5710 ca         1 53T      -0.072800
     13 C20          5.8060     5.4080    -1.6010 ca         1 53T      -0.131000
     14 C22          5.6440     7.4330    -0.5090 ca         1 53T      -0.094000
     15 C23          6.1670     7.4530     0.4920 ca         1 53T      -0.072800
     16 C27          6.0970     8.4940     1.5730 c3         1 53T      -0.024300
     17 C24          6.7360     6.0670     0.6100 ca         1 53T      -0.131000
     18 C25          6.6550     4.9220    -0.3330 cp         1 53T      -0.079000
     19 C18          6.8160     3.4890    -0.2250 cp         1 53T      -0.003000
     20 C19          6.0300     2.4480     0.1700 ca         1 53T      -0.049000
     21 C17          8.0460     3.4920     0.1840 ca         1 53T      -0.164000
     22 C16          8.8000     2.5510     0.1650 ca         1 53T       0.173100
     23 O17         10.1270     2.6760     0.5890 os         1 53T      -0.417900
     24 C15          7.9760     1.3960     0.6290 ca         1 53T      -0.120000
     25 C14          6.7360     1.2250     0.1660 ca         1 53T      -0.053300
     26 N4          -0.0700    -0.0020     2.3170 nb         1 53T      -0.808000
     27 N7          -2.0590    -0.0020     1.0970 nv         1 53T      -0.994500
     28 N9           2.0310     0.0010    -1.1910 nv         1 53T      -1.077500
     29 H8           1.2480     0.3980     4.4970 hc         1 53T       0.058700
     30 H8A          2.1990    -1.0160     4.0200 hc         1 53T       0.058700
     31 H8B          2.8180     0.6120     3.7100 hc         1 53T       0.058700
     32 H12          6.5480     0.5750     2.0780 hc         1 53T       0.049700
     33 H13          6.1550    -2.0310     1.6250 hc         1 53T       0.046367
     34 H13A         7.2740    -1.6630     0.3050 hc         1 53T       0.046367
     35 H13B         7.7290    -1.3030     1.9760 hc         1 53T       0.046367
     36 H2          10.8350     4.4010     1.2290 h1         1 53T       0.018700
     37 H2A         11.6710     2.9450     1.7850 h1         1 53T       0.018700
     38 H2B         10.0800     3.3550     2.4390 h1         1 53T       0.018700
     39 H26          4.3810     7.7840    -3.3060 hc         1 53T       0.044533
     40 H26A         5.6550     6.6720    -3.8290 hc         1 53T       0.044533
     41 H26B         4.0750     6.0420    -3.3420 hc         1 53T       0.044533
     42 H20          5.8570     4.8490    -2.5280 ha         1 53T       0.120000
     43 H22          5.7570     8.4700    -0.8000 ha         1 53T       0.085000
     44 H27          5.5200     9.3410     1.2220 hc         1 53T       0.044533
     45 H27A         5.6220     8.0720     2.4510 hc         1 53T       0.044533
     46 H27B         7.0990     8.8200     1.8260 hc         1 53T       0.044533
     47 H24          7.3730     5.9220     1.4740 ha         1 53T       0.120000
     48 H19          4.9920     2.4070    -0.1370 ha         1 53T       0.145000
     49 H17          8.4930     4.4570     0.3950 ha         1 53T       0.128000
     50 H15          8.5230     0.4670     0.7330 ha         1 53T       0.129000
     51 HN7         -2.5850    -0.2650     1.9070 hn         1 53T       0.449800
     52 HN7A        -2.5340     0.2610     0.2560 hn         1 53T       0.449800
     53 HN9          2.2610     0.8680    -1.6350 hn         1 53T       0.442800
     54 HN9A         2.3350    -0.8630    -1.5930 hn         1 53T       0.442800
     55 C26          4.8190     6.8050    -3.1520 c3         1 53T      -0.024300
@<TRIPOS>BOND
     1     1     7 ar  
     2     1     9 ar  
     3     2    10 1   
     4     3     4 3   
     5     3    11 1   
     6     4     5 1   
     7     5     6 1   
     8     5    25 1   
     9     7    11 ar  
    10     7    28 1   
    11     8    23 1   
    12     9    26 ar  
    13     9    27 1   
    14    10    11 ar  
    15    10    26 ar  
    16    55    12 1   
    17    12    13 ar  
    18    12    14 ar  
    19    13    18 ar  
    20    14    15 ar  
    21    15    16 1   
    22    15    17 ar  
    23    17    18 ar  
    24    18    19 1   
    25    19    20 ar  
    26    19    21 ar  
    27    20    25 ar  
    28    21    22 ar  
    29    22    23 1   
    30    22    24 ar  
    31    24    25 ar  
    32     2    29 1   
    33     2    30 1   
    34     2    31 1   
    35     5    32 1   
    36     6    33 1   
    37     6    34 1   
    38     6    35 1   
    39     8    36 1   
    40     8    37 1   
    41     8    38 1   
    42    55    39 1   
    43    55    40 1   
    44    55    41 1   
    45    13    42 1   
    46    14    43 1   
    47    16    44 1   
    48    16    45 1   
    49    16    46 1   
    50    17    47 1   
    51    20    48 1   
    52    21    49 1   
    53    24    50 1   
    54    27    51 1   
    55    27    52 1   
    56    28    53 1   
    57    28    54 1   
@<TRIPOS>SUBSTRUCTURE
     1 53T         1 TEMP              0 ****  ****    0 ROOT
