@<TRIPOS>MOLECULE
molecule
   55    57     1     0     0
SMALL
bcc


@<TRIPOS>ATOM
      1 C1           0.0000     0.0000     0.0000 ca         1 53V       0.760200
      2 C2           8.8930    -1.7220    -1.4270 c3         1 53V       0.127700
      3 C3           0.0290    -0.0010     2.3060 ca         1 53V       0.981900
      4 C6           1.4090     0.0000     0.0000 ca         1 53V      -0.314600
      5 C12          3.2740    -0.1840    -3.4770 c3         1 53V       0.016700
      6 C13          2.9700     1.0320    -4.3540 c3         1 53V      -0.096100
      7 C14          4.9930     0.1990    -3.5120 ca         1 53V      -0.068300
      8 C15          5.3610    -0.9910    -2.4570 ca         1 53V      -0.127000
      9 C16          6.6420    -0.8630    -2.3530 ca         1 53V       0.090100
     10 C17          7.4890     0.1660    -3.0720 ca         1 53V      -0.106000
     11 C18          6.8970     0.9520    -3.8270 cp         1 53V      -0.029000
     12 C20          8.3610     0.9170    -5.7100 ca         1 53V      -0.084800
     13 C21          8.9140     1.7280    -6.9440 ca         1 53V      -0.114000
     14 C22          9.1030     3.2630    -6.9770 ca         1 53V      -0.131000
     15 C23          7.9730     3.4980    -6.2340 ca         1 53V      -0.114000
     16 C24          7.0690     2.9180    -5.6850 ca         1 53V      -0.084800
     17 C27          5.9030     3.3570    -4.3610 c3         1 53V      -0.034800
     18 C25          7.3440     1.3920    -5.1130 cp         1 53V      -0.053000
     19 C19          5.5560     0.9510    -4.0480 ca         1 53V      -0.126000
     20 O17          7.4720    -1.9350    -1.5410 os         1 53V      -0.397900
     21 C11          2.7610     0.0160    -2.2290 c1         1 53V      -0.117100
     22 C10          2.1440     0.0010    -1.2290 cg         1 53V      -0.094000
     23 C5           2.0690     0.0000     1.2290 ca         1 53V       0.530600
     24 C8           3.5740     0.0010     1.2890 c3         1 53V      -0.145400
     25 N4           1.3550    -0.0000     2.3430 nb         1 53V      -0.794000
     26 N7          -0.6750    -0.0010     3.4960 nv         1 53V      -1.058500
     27 N2          -0.6410    -0.0000     1.1630 nb         1 53V      -0.830000
     28 N9          -0.7030     0.0050    -1.1910 nv         1 53V      -0.993500
     29 H2           9.3180    -2.4690    -0.7680 h1         1 53V       0.031367
     30 H2A          9.0780    -0.7350    -1.0210 h1         1 53V       0.031367
     31 H2B          9.3490    -1.8030    -2.4060 h1         1 53V       0.031367
     32 H12          3.0110    -1.1340    -3.9250 hc         1 53V       0.094700
     33 H13          3.4120     0.8910    -5.3330 hc         1 53V       0.038367
     34 H13A         1.8970     1.1460    -4.4550 hc         1 53V       0.038367
     35 H13B         3.3860     1.9210    -3.8950 hc         1 53V       0.038367
     36 H15          4.7170    -1.7540    -2.0360 ha         1 53V       0.189000
     37 H17          8.5630     0.2090    -2.9340 ha         1 53V       0.155000
     38 H26          8.2380    -1.2570    -4.9930 hc         1 53V       0.045367
     39 H26A         8.4430    -1.1270    -6.7450 hc         1 53V       0.045367
     40 H26B         9.8210    -0.8500    -5.6700 hc         1 53V       0.045367
     41 H21          9.6530     1.1800    -7.5160 ha         1 53V       0.096500
     42 H22          9.5450     3.9550    -7.6840 ha         1 53V       0.180000
     43 H23          7.8430     4.5680    -6.1180 ha         1 53V       0.096500
     44 H27          4.8890     3.1830    -4.7000 hc         1 53V       0.045367
     45 H27A         6.1010     2.7460    -3.4880 hc         1 53V       0.045367
     46 H27B         6.0240     4.4020    -4.1050 hc         1 53V       0.045367
     47 H19          5.0810     1.6700    -4.7060 ha         1 53V       0.182000
     48 H8           3.9550     0.8710     0.7670 hc         1 53V       0.060700
     49 H8A          3.9550    -0.8970     0.8190 hc         1 53V       0.060700
     50 H8B          3.8950     0.0320     2.3230 hc         1 53V       0.060700
     51 HN7         -0.7920     0.8510     4.0090 hn         1 53V       0.445300
     52 HN7A        -1.0680    -0.8530     3.8450 hn         1 53V       0.445300
     53 HN9         -1.7020     0.0720    -1.1820 hn         1 53V       0.446300
     54 HN9A        -0.2140    -0.0640    -2.0610 hn         1 53V       0.446300
     55 C26          8.7510    -0.7270    -5.7860 c3         1 53V      -0.034800
@<TRIPOS>BOND
     1     1     4 ar
     2     1    27 ar
     3     1    28 1
     4     2    20 1
     5     3    25 ar
     6     3    26 1
     7     3    27 ar
     8     4    22 1
     9     4    23 ar
    10     5     6 1
    11     5     7 1
    12     5    21 1
    13     7     8 ar
    14     7    19 ar
    15     8     9 ar
    16     9    10 ar
    17     9    20 1
    18    10    11 ar
    19    11    18 1
    20    11    19 ar
    21    55    12 1
    22    12    13 ar
    23    12    18 ar
    24    13    14 ar
    25    14    15 ar
    26    15    16 ar
    27    16    17 1
    28    16    18 ar
    29    21    22 3
    30    23    24 1
    31    23    25 ar
    32     2    29 1
    33     2    30 1
    34     2    31 1
    35     5    32 1
    36     6    33 1
    37     6    34 1
    38     6    35 1
    39     8    36 1
    40    10    37 1
    41    55    38 1
    42    55    39 1
    43    55    40 1
    44    13    41 1
    45    14    42 1
    46    15    43 1
    47    17    44 1
    48    17    45 1
    49    17    46 1
    50    19    47 1
    51    24    48 1
    52    24    49 1
    53    24    50 1
    54    26    51 1
    55    26    52 1
    56    28    53 1
    57    28    54 1
@<TRIPOS>SUBSTRUCTURE
     1 53V         1 TEMP              0 ****  ****    0 ROOT
