@<TRIPOS>MOLECULE
molecule
   34    36     1     0     0
SMALL
bcc


@<TRIPOS>ATOM
      1 OAS          0.0000     0.0000     0.0000 o          1 53X      -0.829300
      2 CAO          1.2160     0.0000     0.0000 c          1 53X       0.900200
      3 OAT          1.8900     0.0000     1.1690 o          1 53X      -0.829300
      4 CAL          1.9510    -0.0080    -1.2730 cc         1 53X      -0.070900
      5 CAK          1.4000    -0.0140    -2.5360 cd         1 53X      -0.346300
      6 NAM          3.3110    -0.0040    -1.4240 na         1 53X       0.087400
      7 CAP          4.2980     0.0080    -0.3420 c3         1 53X       0.084600
      8 NAN          3.5920    -0.0130    -2.7960 nc         1 53X      -0.566800
      9 CAJ          2.4550    -0.0190    -3.4610 cd         1 53X       0.394100
     10 CAI          2.3130    -0.0300    -4.9380 cd         1 53X      -0.144000
     11 CAH          1.1540    -0.0320    -5.6390 cc         1 53X      -0.103100
     12 CAF          3.4050    -0.0360    -5.9230 ca         1 53X      -0.083800
     13 CAA          4.7950    -0.0350    -5.8280 ca         1 53X      -0.055000
     14 CAB          5.5550    -0.0420    -6.9660 ca         1 53X      -0.180000
     15 CAC          4.9500    -0.0530    -8.2150 ca         1 53X      -0.120000
     16 CAD          3.5770    -0.0550    -8.3310 ca         1 53X      -0.157000
     17 CAE          2.7870    -0.0470    -7.1860 ca         1 53X      -0.043200
     18 NAG          1.4240    -0.0380    -6.9770 na         1 53X      -0.079400
     19 CAQ          0.4140    -0.0400    -8.0380 c3         1 53X       0.052300
     20 CAR          0.1500    -1.4780    -8.4870 c3         1 53X      -0.119100
     21 HAK1         0.3420    -0.0170    -2.7710 ha         1 53X       0.151000
     22 HAP3         4.1510     0.8880     0.2720 h1         1 53X       0.049367
     23 HAP2         4.1780    -0.8810     0.2670 h1         1 53X       0.049367
     24 HAP1         5.2960     0.0240    -0.7630 h1         1 53X       0.049367
     25 HAH1         0.1620    -0.0280    -5.2030 h4         1 53X       0.175000
     26 HAA1         5.2730    -0.0260    -4.8560 ha         1 53X       0.155000
     27 HAB1         6.6350    -0.0410    -6.8910 ha         1 53X       0.118000
     28 HAC1         5.5640    -0.0590    -9.1070 ha         1 53X       0.114000
     29 HAD1         3.1150    -0.0640    -9.3110 ha         1 53X       0.112000
     30 HAQ1         0.7720     0.5410    -8.8790 h1         1 53X       0.052200
     31 HAQ2        -0.5040     0.3950    -7.6620 h1         1 53X       0.052200
     32 HAR1         0.7310    -1.6910    -9.3760 hc         1 53X       0.043367
     33 HAR3         0.4350    -2.1620    -7.6970 hc         1 53X       0.043367
     34 HAR2        -0.9040    -1.6000    -8.7070 hc         1 53X       0.043367
@<TRIPOS>BOND
     1    20    19 1   
     2    19    18 1   
     3    18    11 1   
     4    18    17 1   
     5    11    10 2   
     6    17    16 ar  
     7    17    12 ar  
     8    16    15 ar  
     9    10    12 1   
    10    10     9 1   
    11    12    13 ar  
    12    15    14 ar  
    13     9     8 2   
    14     9     5 1   
    15     8     6 1   
    16    13    14 ar  
    17     5     4 2   
    18     6     7 1   
    19     6     4 1   
    20     4     2 1   
    21     1     2 1   
    22     2     3 1   
    23     5    21 1   
    24     7    22 1   
    25     7    23 1   
    26     7    24 1   
    27    11    25 1   
    28    13    26 1   
    29    14    27 1   
    30    15    28 1   
    31    16    29 1   
    32    19    30 1   
    33    19    31 1   
    34    20    32 1   
    35    20    33 1   
    36    20    34 1   
@<TRIPOS>SUBSTRUCTURE
     1 53X         1 TEMP              0 ****  ****    0 ROOT
