@<TRIPOS>MOLECULE
53Y
   22    24     1     0     0
SMALL
bcc


@<TRIPOS>ATOM
      1 C10          0.0000     0.0000     0.0000 cc         1 53Y      -0.174000
      2 C01         -0.2140    -0.0000     5.6710 ca         1 53Y      -0.112000
      3 C02          1.0400    -0.0000     6.2560 ca         1 53Y      -0.061000
      4 C03          2.1740     0.0010     5.4700 ca         1 53Y      -0.135000
      5 C04          2.0610    -0.0000     4.0850 ca         1 53Y      -0.068400
      6 C05          0.7980    -0.0000     3.4960 ca         1 53Y      -0.225200
      7 C06         -0.3380    -0.0000     4.2950 ca         1 53Y      -0.076000
      8 N01          3.2120    -0.0010     3.2970 ns         1 53Y      -0.008100
      9 C07          3.1210    -0.0000     1.9520 c          1 53Y       0.656100
     10 C08          1.8020     0.0000     1.3170 cd         1 53Y      -0.406900
     11 N            0.6680     0.0000     2.1030 na         1 53Y       0.612800
     12 C09          1.3980     0.0000     0.0000 cc         1 53Y      -0.069000
     13 C           -0.4170     0.0000     1.2890 cd         1 53Y      -0.321300
     14 O            4.1300     0.0000     1.2700 o          1 53Y      -0.660500
     15 H07         -0.6370     0.0450    -0.8750 ha         1 53Y       0.129000
     16 H01         -1.1010    -0.0010     6.2930 ha         1 53Y       0.111000
     17 H02          1.1310    -0.0000     7.3350 ha         1 53Y       0.107000
     18 H03          3.1540     0.0010     5.9330 ha         1 53Y       0.116000
     19 H04         -1.3210     0.0000     3.8400 ha         1 53Y       0.116000
     20 H05          4.1130    -0.0020     3.7330 hn         1 53Y       0.184500
     21 H06          2.0410     0.0000    -0.8710 ha         1 53Y       0.136000
     22 H           -1.4500     0.0000     1.6170 h4         1 53Y       0.146000
@<TRIPOS>BOND
     1     1    12 1   
     2     1    13 2   
     3     1    15 1   
     4     2     3 ar  
     5     2     7 ar  
     6     2    16 1   
     7     3     4 ar  
     8     3    17 1   
     9     4     5 ar  
    10     4    18 1   
    11     5     6 ar  
    12     5     8 1   
    13     6     7 ar  
    14     6    11 1   
    15     7    19 1   
    16     8     9 1   
    17     8    20 1   
    18     9    10 1   
    19     9    14 2   
    20    10    11 1   
    21    10    12 2   
    22    11    13 1   
    23    12    21 1   
    24    13    22 1   
@<TRIPOS>SUBSTRUCTURE
     1 53Y         1 TEMP              0 ****  ****    0 ROOT
