@<TRIPOS>MOLECULE
molecule
   22    24     1     0     0
SMALL
bcc


@<TRIPOS>ATOM
      1 C10          0.0000     0.0000     0.0000 cc         1 53Y      -0.209000
      2 C01         -0.2140    -0.0000     5.6710 ca         1 53Y      -0.137000
      3 C02          1.0400    -0.0000     6.2560 ca         1 53Y      -0.102000
      4 C03          2.1740     0.0010     5.4700 ca         1 53Y      -0.158000
      5 C04          2.0610    -0.0000     4.0850 ca         1 53Y       0.063600
      6 C05          0.7980    -0.0000     3.4960 ca         1 53Y      -0.033200
      7 C06         -0.3380    -0.0000     4.2950 ca         1 53Y      -0.115000
      8 N01          3.2120    -0.0010     3.2970 ns         1 53Y      -0.455100
      9 C07          3.1210    -0.0000     1.9520 c          1 53Y       0.740100
     10 C08          1.8020     0.0000     1.3170 cd         1 53Y      -0.198900
     11 N            0.6680     0.0000     2.1030 na         1 53Y       0.051800
     12 C09          1.3980     0.0000     0.0000 cc         1 53Y      -0.105000
     13 C           -0.4170     0.0000     1.2890 cd         1 53Y      -0.126300
     14 O            4.1300     0.0000     1.2700 o          1 53Y      -0.619500
     15 H07         -0.6370     0.0450    -0.8750 ha         1 53Y       0.158000
     16 H01         -1.1010    -0.0010     6.2930 ha         1 53Y       0.140000
     17 H02          1.1310    -0.0000     7.3350 ha         1 53Y       0.139000
     18 H03          3.1540     0.0010     5.9330 ha         1 53Y       0.142000
     19 H04         -1.3210     0.0000     3.8400 ha         1 53Y       0.143000
     20 H05          4.1130    -0.0020     3.7330 hn         1 53Y       0.344500
     21 H06          2.0410     0.0000    -0.8710 ha         1 53Y       0.168000
     22 H           -1.4500     0.0000     1.6170 h4         1 53Y       0.169000
@<TRIPOS>BOND
     1     1    12 1
     2     1    13 2
     3    12    10 2
     4    13    11 1
     5    10    11 1
     6    10     9 1
     7    14     9 2
     8    11     6 1
     9     9     8 1
    10     6     7 ar
    11     6     5 ar
    12     8     5 1
    13     7     2 ar
    14     5     4 ar
    15     2     3 ar
    16     4     3 ar
    17     1    15 1
    18     2    16 1
    19     3    17 1
    20     4    18 1
    21     7    19 1
    22     8    20 1
    23    12    21 1
    24    13    22 1
@<TRIPOS>SUBSTRUCTURE
     1 53Y         1 TEMP              0 ****  ****    0 ROOT
