@<TRIPOS>MOLECULE
53Z
   40    41     1     0     0
SMALL
bcc


@<TRIPOS>ATOM
      1 CAJ          0.0000     0.0000     0.0000 c3         1 53Z       0.052000
      2 CAH          1.5490     0.0000     0.0000 c3         1 53Z      -0.033400
      3 CAI          1.8600     0.0000     1.5200 c3         1 53Z      -0.033400
      4 CAK          0.7310    -0.8730     2.1050 c3         1 53Z       0.052000
      5 NAT         -0.3800    -0.8590     1.1370 n          1 53Z      -0.155800
      6 C           -1.5470    -1.5180     1.2710 c          1 53Z       0.593100
      7 O           -1.7510    -2.1960     2.2560 o          1 53Z      -0.659100
      8 CA          -2.6000    -1.4120     0.1980 c3         1 53Z      -0.001000
      9 N           -3.7650    -2.2140     0.5760 ns         1 53Z      -0.214900
     10 CAP         -4.8390    -2.2710    -0.2380 c          1 53Z       0.577100
     11 OAB         -4.8390    -1.6540    -1.2860 o          1 53Z      -0.720100
     12 NAO         -5.9110    -3.0080     0.1110 ns         1 53Z      -0.215900
     13 CAM         -7.0770    -3.0690    -0.7740 c3         1 53Z       0.128300
     14 CAS         -8.1300    -3.9550    -0.1580 ca         1 53Z      -0.131300
     15 CAF         -8.1350    -5.3110    -0.4290 ca         1 53Z      -0.079000
     16 CAD         -9.0970    -6.1250     0.1340 ca         1 53Z      -0.116000
     17 CAR        -10.0610    -5.5800     0.9740 ca         1 53Z       0.038600
     18 NAA        -11.0360    -6.4010     1.5460 nv         1 53Z      -0.562200
     19 CAE        -10.0520    -4.2180     1.2430 ca         1 53Z      -0.116000
     20 CAG         -9.0840    -3.4100     0.6810 ca         1 53Z      -0.079000
     21 H1          -0.3750     1.0060     0.1470 h1         1 53Z       0.023450
     22 H2          -0.3750    -0.4170    -0.9270 h1         1 53Z       0.023450
     23 H3           1.9350     0.8950    -0.4730 hc         1 53Z       0.025950
     24 H4           1.9350    -0.8950    -0.4730 hc         1 53Z       0.025950
     25 H5           2.8270    -0.4490     1.7110 hc         1 53Z       0.025950
     26 H6           1.8110     1.0060     1.9190 hc         1 53Z       0.025950
     27 H7           1.0840    -1.8880     2.2430 h1         1 53Z       0.023450
     28 H8           0.3990    -0.4610     3.0500 h1         1 53Z       0.023450
     29 H9          -2.8960    -0.3760     0.0840 h1         1 53Z       0.037700
     30 H10         -2.1980    -1.7780    -0.7390 h1         1 53Z       0.037700
     31 H11         -3.7650    -2.7200     1.4400 hn         1 53Z       0.197500
     32 H12         -5.9110    -3.5140     0.9740 hn         1 53Z       0.173500
     33 H13         -7.4790    -2.0720    -0.9110 h1         1 53Z       0.026700
     34 H14         -6.7810    -3.4740    -1.7350 h1         1 53Z       0.026700
     35 H15         -7.3840    -5.7350    -1.0840 ha         1 53Z       0.107500
     36 H16         -9.1010    -7.1870    -0.0780 ha         1 53Z       0.109000
     37 H17        -10.8690    -6.8340     2.4330 hn         1 53Z       0.273800
     38 H18        -11.9020    -6.5570     1.0690 hn         1 53Z       0.273800
     39 H19        -10.8010    -3.7900     1.8990 ha         1 53Z       0.109000
     40 H20         -9.0770    -2.3470     0.8910 ha         1 53Z       0.107500
@<TRIPOS>BOND
     1     1     2 1   
     2     1     5 1   
     3     1    21 1   
     4     1    22 1   
     5     2     3 1   
     6     2    23 1   
     7     2    24 1   
     8     3     4 1   
     9     3    25 1   
    10     3    26 1   
    11     4     5 1   
    12     4    27 1   
    13     4    28 1   
    14     5     6 1   
    15     6     7 2   
    16     6     8 1   
    17     8     9 1   
    18     8    29 1   
    19     8    30 1   
    20     9    10 1   
    21     9    31 1   
    22    10    11 2   
    23    10    12 1   
    24    12    13 1   
    25    12    32 1   
    26    13    14 1   
    27    13    33 1   
    28    13    34 1   
    29    14    15 ar  
    30    14    20 ar  
    31    15    16 ar  
    32    15    35 1   
    33    16    17 ar  
    34    16    36 1   
    35    17    18 1   
    36    17    19 ar  
    37    18    37 1   
    38    18    38 1   
    39    19    20 ar  
    40    19    39 1   
    41    20    40 1   
@<TRIPOS>SUBSTRUCTURE
     1 53Z         1 TEMP              0 ****  ****    0 ROOT
