@<TRIPOS>MOLECULE
molecule
   40    41     1     0     0
SMALL
bcc


@<TRIPOS>ATOM
      1 CAJ          0.0000     0.0000     0.0000 c3         1 53Z       0.098000
      2 CAH          1.5490     0.0000     0.0000 c3         1 53Z      -0.096900
      3 CAI          1.8600     0.0000     1.5200 c3         1 53Z      -0.096900
      4 CAK          0.7310    -0.8730     2.1050 c3         1 53Z       0.098000
      5 NAT         -0.3800    -0.8590     1.1370 n          1 53Z      -0.494800
      6 C           -1.5470    -1.5180     1.2710 c          1 53Z       0.667100
      7 O           -1.7510    -2.1960     2.2560 o          1 53Z      -0.617100
      8 CA          -2.6000    -1.4120     0.1980 c3         1 53Z       0.064000
      9 N           -3.7650    -2.2140     0.5760 ns         1 53Z      -0.598900
     10 CAP         -4.8390    -2.2710    -0.2380 c          1 53Z       0.783100
     11 OAB         -4.8390    -1.6540    -1.2860 o          1 53Z      -0.670100
     12 NAO         -5.9110    -3.0080     0.1110 ns         1 53Z      -0.599900
     13 CAM         -7.0770    -3.0690    -0.7740 c3         1 53Z       0.180300
     14 CAS         -8.1300    -3.9550    -0.1580 ca         1 53Z      -0.128300
     15 CAF         -8.1350    -5.3110    -0.4290 ca         1 53Z      -0.107500
     16 CAD         -9.0970    -6.1250     0.1340 ca         1 53Z      -0.148000
     17 CAR        -10.0610    -5.5800     0.9740 ca         1 53Z       0.173600
     18 NAA        -11.0360    -6.4010     1.5460 nv         1 53Z      -0.993200
     19 CAE        -10.0520    -4.2180     1.2430 ca         1 53Z      -0.148000
     20 CAG         -9.0840    -3.4100     0.6810 ca         1 53Z      -0.107500
     21 H1          -0.3750     1.0060     0.1470 h1         1 53Z       0.052200
     22 H2          -0.3750    -0.4170    -0.9270 h1         1 53Z       0.052200
     23 H3           1.9350     0.8950    -0.4730 hc         1 53Z       0.057450
     24 H4           1.9350    -0.8950    -0.4730 hc         1 53Z       0.057450
     25 H5           2.8270    -0.4490     1.7110 hc         1 53Z       0.057450
     26 H6           1.8110     1.0060     1.9190 hc         1 53Z       0.057450
     27 H7           1.0840    -1.8880     2.2430 h1         1 53Z       0.052200
     28 H8           0.3990    -0.4610     3.0500 h1         1 53Z       0.052200
     29 H9          -2.8960    -0.3760     0.0840 h1         1 53Z       0.070200
     30 H10         -2.1980    -1.7780    -0.7390 h1         1 53Z       0.070200
     31 H11         -3.7650    -2.7200     1.4400 hn         1 53Z       0.333500
     32 H12         -5.9110    -3.5140     0.9740 hn         1 53Z       0.314500
     33 H13         -7.4790    -2.0720    -0.9110 h1         1 53Z       0.057700
     34 H14         -6.7810    -3.4740    -1.7350 h1         1 53Z       0.057700
     35 H15         -7.3840    -5.7350    -1.0840 ha         1 53Z       0.135000
     36 H16         -9.1010    -7.1870    -0.0780 ha         1 53Z       0.137000
     37 H17        -10.8690    -6.8340     2.4330 hn         1 53Z       0.428800
     38 H18        -11.9020    -6.5570     1.0690 hn         1 53Z       0.428800
     39 H19        -10.8010    -3.7900     1.8990 ha         1 53Z       0.137000
     40 H20         -9.0770    -2.3470     0.8910 ha         1 53Z       0.135000
@<TRIPOS>BOND
     1    11    10 2   
     2     4     3 1   
     3     4     5 1   
     4     3     2 1   
     5     8     9 1   
     6     8     6 1   
     7    10     9 1   
     8    10    12 1   
     9    13    12 1   
    10    13    14 1   
    11     5     6 1   
    12     5     1 1   
    13     2     1 1   
    14     6     7 2   
    15    14    20 ar  
    16    14    15 ar  
    17    20    19 ar  
    18    15    16 ar  
    19    19    17 ar  
    20    16    17 ar  
    21    17    18 1   
    22     1    21 1   
    23     1    22 1   
    24     2    23 1   
    25     2    24 1   
    26     3    25 1   
    27     3    26 1   
    28     4    27 1   
    29     4    28 1   
    30     8    29 1   
    31     8    30 1   
    32     9    31 1   
    33    12    32 1   
    34    13    33 1   
    35    13    34 1   
    36    15    35 1   
    37    16    36 1   
    38    18    37 1   
    39    18    38 1   
    40    19    39 1   
    41    20    40 1   
@<TRIPOS>SUBSTRUCTURE
     1 53Z         1 TEMP              0 ****  ****    0 ROOT
