@<TRIPOS>MOLECULE
molecule
   42    45     1     0     0
SMALL
bcc


@<TRIPOS>ATOM
      1 C1           0.0000     0.0000     0.0000 c3         1 540      -0.050800
      2 F1           2.3510     4.7960    -1.4100 f          1 540      -0.128900
      3 N1           3.7250     0.0000     0.0000 nb         1 540      -0.677000
      4 O1          -1.0700     5.6230    -4.5890 os         1 540      -0.288900
      5 C2           1.4270     0.0010    -0.4850 ca         1 540      -0.175600
      6 N2           0.0460    -1.0690    -3.3610 nc         1 540      -0.554300
      7 C3           2.4720     0.0000     0.4150 ca         1 540       0.416200
      8 N3           0.0640     1.1100    -3.4100 na         1 540      -0.023200
      9 C4           4.0380     0.0010    -1.2820 ca         1 540       0.410200
     10 N4          -1.4610     2.8940    -4.8720 nc         1 540      -0.666000
     11 C5           3.0570     0.0030    -2.2510 ca         1 540      -0.222300
     12 C6           1.7120     0.0030    -1.8560 ca         1 540      -0.068900
     13 C7           0.6270     0.0050    -2.8570 cd         1 540       0.410400
     14 C8          -0.8900    -0.7090    -4.2340 cc         1 540       0.073400
     15 C9          -0.9060     0.6720    -4.2920 cd         1 540      -0.245600
     16 C10          0.2660     2.4730    -3.2650 ca         1 540      -0.029600
     17 C11          1.2280     2.9620    -2.3930 ca         1 540      -0.227000
     18 C12          1.4140     4.3250    -2.2610 ca         1 540       0.195900
     19 C13          0.6440     5.2150    -2.9980 ca         1 540      -0.278000
     20 C14         -0.3190     4.7470    -3.8720 ca         1 540       0.150800
     21 C15         -0.5170     3.3650    -4.0180 ca         1 540       0.354600
     22 C16         -1.6640     1.6120    -5.0210 cd         1 540       0.483600
     23 C17         -2.7210     1.1320    -5.9810 c3         1 540      -0.138400
     24 C18         -0.8100     7.0150    -4.3910 c3         1 540       0.120700
     25 C19         -1.7740    -1.6400    -5.0220 c3         1 540      -0.010900
     26 H1          -0.0200    -0.2080     1.0630 hc         1 540       0.053033
     27 H1A         -0.5600    -0.7630    -0.5280 hc         1 540       0.053033
     28 H1B         -0.4460     0.9700    -0.1870 hc         1 540       0.053033
     29 H3           2.2610    -0.0010     1.4780 h4         1 540       0.029100
     30 H4           5.0800     0.0010    -1.5770 h4         1 540       0.028100
     31 H5           3.3210     0.0040    -3.3010 ha         1 540       0.150000
     32 H11          1.8570     2.2740    -1.8410 ha         1 540       0.166000
     33 H13          0.7990     6.2810    -2.8880 ha         1 540       0.158000
     34 H17         -3.2050     1.9840    -6.4420 hc         1 540       0.059700
     35 H17A        -2.2610     0.5200    -6.7480 hc         1 540       0.059700
     36 H17B        -3.4570     0.5450    -5.4440 hc         1 540       0.059700
     37 H18         -0.9830     7.2700    -3.3530 h1         1 540       0.047367
     38 H18A        -1.4710     7.5990    -5.0210 h1         1 540       0.047367
     39 H18B         0.2190     7.2310    -4.6500 h1         1 540       0.047367
     40 H19         -2.8120    -1.4350    -4.7900 hc         1 540       0.051700
     41 H19A        -1.6050    -1.4880    -6.0820 hc         1 540       0.051700
     42 H19B        -1.5410    -2.6650    -4.7630 hc         1 540       0.051700
@<TRIPOS>BOND
     1     1     5 1   
     2     1    26 1   
     3     1    27 1   
     4     1    28 1   
     5     2    18 1   
     6     7     3 ar  
     7     3     9 ar  
     8    24     4 1   
     9     4    20 1   
    10     7     5 ar  
    11     5    12 ar  
    12    13     6 2   
    13     6    14 1   
    14     7    29 1   
    15    16     8 1   
    16     8    13 1   
    17     8    15 1   
    18     9    11 ar  
    19     9    30 1   
    20    21    10 1   
    21    10    22 2   
    22    12    11 ar  
    23    11    31 1   
    24    12    13 1   
    25    15    14 2   
    26    14    25 1   
    27    22    15 1   
    28    17    16 ar  
    29    21    16 ar  
    30    18    17 ar  
    31    17    32 1   
    32    19    18 ar  
    33    19    20 ar  
    34    19    33 1   
    35    20    21 ar  
    36    22    23 1   
    37    23    34 1   
    38    23    35 1   
    39    23    36 1   
    40    24    37 1   
    41    24    38 1   
    42    24    39 1   
    43    25    40 1   
    44    25    41 1   
    45    25    42 1   
@<TRIPOS>SUBSTRUCTURE
     1 540         1 TEMP              0 ****  ****    0 ROOT
