@<TRIPOS>MOLECULE
540
   42    45     1     0     0
SMALL
bcc


@<TRIPOS>ATOM
      1 C1          0.0570   -0.3010    0.0740 c3        1 540     -0.057800
      2 F1          2.3590    4.9170   -1.3760 f         1 540     -0.129900
      3 N1          3.8210   -0.1150    0.0290 nb        1 540     -0.648000
      4 O1         -1.0420    5.6760   -4.6890 os        1 540     -0.288900
      5 C2          1.4320   -0.1580   -0.4470 ca        1 540     -0.150600
      6 N2          0.0110   -1.0930   -3.2750 nc        1 540     -0.538300
      7 C3          2.5420   -0.2130    0.4280 ca        1 540      0.387200
      8 N3          0.0520    1.1810   -3.3930 na        1 540     -0.066200
      9 C4          4.0500    0.0450   -1.2900 ca        1 540      0.382200
     10 N4         -1.4830    2.9940   -4.9440 nc        1 540     -0.635000
     11 C5          3.0260    0.1160   -2.2500 ca        1 540     -0.215300
     12 C6          1.6980    0.0180   -1.8150 ca        1 540     -0.075900
     13 C7          0.6080    0.0310   -2.7980 cd        1 540      0.413400
     14 C8         -0.9500   -0.6920   -4.1990 cc        1 540      0.063400
     15 C9         -0.9500    0.7210   -4.2970 cd        1 540     -0.218600
     16 C10         0.2820    2.5540   -3.2440 ca        1 540     -0.007600
     17 C11         1.2450    3.0560   -2.3450 ca        1 540     -0.224000
     18 C12         1.4350    4.4340   -2.2390 ca        1 540      0.188900
     19 C13         0.6820    5.3370   -3.0140 ca        1 540     -0.268000
     20 C14        -0.2720    4.8510   -3.9020 ca        1 540      0.139800
     21 C15        -0.5100    3.4440   -4.0480 ca        1 540      0.330600
     22 C16        -1.6970    1.7040   -5.0630 cd        1 540      0.477600
     23 C17        -2.7390    1.1850   -6.0010 c3        1 540     -0.151400
     24 C18        -0.8220    7.0770   -4.5540 c3        1 540      0.105700
     25 C19        -1.8000   -1.6380   -4.9440 c3        1 540     -0.023900
     26 H1          0.0420   -0.2550    1.1910 hc        1 540      0.055700
     27 H1A        -0.6020    0.5100   -0.3250 hc        1 540      0.055700
     28 H1B        -0.3710   -1.2850   -0.2470 hc        1 540      0.055700
     29 H3          2.3860   -0.3480    1.5140 h4        1 540      0.027100
     30 H4          5.1110    0.1170   -1.5900 h4        1 540      0.028100
     31 H5          3.2650    0.2370   -3.3150 ha        1 540      0.155000
     32 H11         1.8520    2.3810   -1.7230 ha        1 540      0.170000
     33 H13         0.8690    6.4140   -2.8980 ha        1 540      0.162000
     34 H17        -2.2990    0.3740   -6.6320 hc        1 540      0.062033
     35 H17A       -3.1350    1.9880   -6.6700 hc        1 540      0.062033
     36 H17B       -3.5880    0.7640   -5.4070 hc        1 540      0.062033
     37 H18        -1.5540    7.5160   -5.2810 h1        1 540      0.050700
     38 H18A       -1.0480    7.4160   -3.5140 h1        1 540      0.050700
     39 H18B        0.2240    7.3430   -4.8400 h1        1 540      0.050700
     40 H19        -2.8680   -1.3050   -4.9050 hc        1 540      0.053700
     41 H19A       -1.7330   -2.6700   -4.5180 hc        1 540      0.053700
     42 H19B       -1.4760   -1.6780   -6.0150 hc        1 540      0.053700
@<TRIPOS>BOND
     1    1    5 1   
     2    1   26 1   
     3    1   27 1   
     4    1   28 1   
     5    2   18 1   
     6    3    7 ar  
     7    3    9 ar  
     8    4   20 1   
     9    4   24 1   
    10    5    7 ar  
    11    5   12 ar  
    12    6   13 2   
    13    6   14 1   
    14    7   29 1   
    15    8   13 1   
    16    8   15 1   
    17    8   16 1   
    18    9   11 ar  
    19    9   30 1   
    20   10   21 1   
    21   10   22 2   
    22   11   12 ar  
    23   11   31 1   
    24   12   13 1   
    25   14   15 2   
    26   14   25 1   
    27   15   22 1   
    28   16   17 ar  
    29   16   21 ar  
    30   17   18 ar  
    31   17   32 1   
    32   18   19 ar  
    33   19   20 ar  
    34   19   33 1   
    35   20   21 ar  
    36   22   23 1   
    37   23   34 1   
    38   23   35 1   
    39   23   36 1   
    40   24   37 1   
    41   24   38 1   
    42   24   39 1   
    43   25   40 1   
    44   25   41 1   
    45   25   42 1   
@<TRIPOS>SUBSTRUCTURE
     1 540         1 TEMP              0 ****  ****    0 ROOT
