@<TRIPOS>MOLECULE
molecule
   59    62     1     0     0
SMALL
bcc


@<TRIPOS>ATOM
      1 C20          0.0000     0.0000     0.0000 ca         1 541      -0.160300
      2 C1           1.3600     0.0000     0.0000 ca         1 541      -0.122000
      3 C2           2.0800     0.0000     1.1930 ca         1 541      -0.124000
      4 C3           1.4400     0.0010     2.3950 ca         1 541      -0.118000
      5 C21          0.0360     0.0070     2.4330 ca         1 541      -0.152300
      6 C22         -0.6980     0.0010     1.2210 ca         1 541       0.425600
      7 N1          -2.0340     0.0000     1.2510 nb         1 541      -0.685000
      8 C5          -2.6890     0.0000     2.3870 ca         1 541       0.440600
      9 C6          -2.0300     0.0020     3.6140 ca         1 541      -0.226300
     10 C7          -0.6640     0.0020     3.6540 ca         1 541      -0.049300
     11 C8           0.0720     0.0030     4.9690 c3         1 541       0.162700
     12 C9          -0.1520     0.0040     7.1960 ca         1 541       0.120100
     13 O2          -0.8700     0.0030     6.0430 os         1 541      -0.298900
     14 C10         -0.8040     0.0050     8.4210 ca         1 541      -0.187000
     15 C11         -0.0710     0.0060     9.5920 ca         1 541      -0.080500
     16 C12          1.3110     0.0070     9.5440 ca         1 541      -0.095300
     17 C13          1.9630     0.0110     8.3250 ca         1 541      -0.080500
     18 C14          1.2350     0.0040     7.1510 ca         1 541      -0.187000
     19 C15          2.9070     1.3240    10.9630 c3         1 541      -0.087400
     20 C16          2.1080     0.0070    10.8230 c3         1 541      -0.092700
     21 C17          1.1850    -0.1890    12.0270 c3         1 541      -0.074100
     22 C18          3.1710    -1.0680    10.7840 c          1 541       0.721500
     23 O3           2.9940    -2.2070    10.4060 o          1 541      -0.596500
     24 C19          4.2140     0.8310    11.6220 c3         1 541       0.099000
     25 C23          5.5800    -1.3550    11.3270 c3         1 541       0.074700
     26 C24          5.3710    -2.5290    12.2480 c          1 541       0.656100
     27 N2           6.3840    -3.3870    12.4830 ns         1 541      -0.475400
     28 O1           6.1880    -4.4920    13.3490 oh         1 541      -0.358100
     29 O4           4.2930    -2.7030    12.7760 o          1 541      -0.545100
     30 C25          5.9680    -1.8590     9.9360 c3         1 541      -0.109100
     31 N3           4.3390    -0.5800    11.2370 n          1 541      -0.490800
     32 H20         -0.5440     0.0000    -0.9370 ha         1 541       0.149000
     33 H1           1.8930    -0.0010    -0.9430 ha         1 541       0.133000
     34 H2           3.1630    -0.0000     1.1650 ha         1 541       0.130000
     35 H3           2.0100     0.0010     3.3160 ha         1 541       0.128000
     36 H41         -4.5420     0.2050     1.3590 hc         1 541       0.054033
     37 H42         -4.5670     0.7630     3.0370 hc         1 541       0.054033
     38 H43         -4.5610    -0.9700     2.6810 hc         1 541       0.054033
     39 H6          -2.5990     0.0020     4.5350 ha         1 541       0.157000
     40 H81          0.6940    -0.8810     5.0350 h1         1 541       0.058700
     41 H82          0.6930     0.8880     5.0340 h1         1 541       0.058700
     42 H10         -1.8870     0.0040     8.4580 ha         1 541       0.141000
     43 H11         -0.5790     0.0040    10.5480 ha         1 541       0.136500
     44 H13          3.0460     0.0120     8.2900 ha         1 541       0.136500
     45 H14          1.7460     0.0080     6.1950 ha         1 541       0.141000
     46 H151         3.1060     1.7590     9.9910 hc         1 541       0.063200
     47 H152         2.3880     2.0220    11.6090 hc         1 541       0.063200
     48 H171         0.6170    -1.1030    11.9020 hc         1 541       0.049033
     49 H172         1.7790    -0.2540    12.9310 hc         1 541       0.049033
     50 H173         0.5050     0.6510    12.1020 hc         1 541       0.049033
     51 H191         5.0580     1.3970    11.2470 h1         1 541       0.046200
     52 H192         4.1440     0.9190    12.7000 h1         1 541       0.046200
     53 H23          6.3710    -0.7260    11.7170 h1         1 541       0.068700
     54 HN2          7.2680    -3.2540    12.0350 hn         1 541       0.316500
     55 HO1          7.0250    -4.8340    13.6160 ho         1 541       0.395000
     56 H251         7.0480    -1.8870     9.8510 hc         1 541       0.053700
     57 H252         5.5640    -1.1910     9.1850 hc         1 541       0.053700
     58 H253         5.5680    -2.8540     9.7880 hc         1 541       0.053700
     59 C4          -4.1960    -0.0010     2.3640 c3         1 541      -0.144400
@<TRIPOS>BOND
     1     1     2 ar  
     2     1     6 ar  
     3     1    32 1   
     4     2     3 ar  
     5     2    33 1   
     6     3     4 ar  
     7     3    34 1   
     8     4     5 ar  
     9     4    35 1   
    10     5     6 ar  
    11     5    10 ar  
    12     6     7 ar  
    13     7     8 ar  
    14    59     8 1   
    15    59    36 1   
    16    59    37 1   
    17    59    38 1   
    18     8     9 ar  
    19     9    10 ar  
    20     9    39 1   
    21    10    11 1   
    22    11    13 1   
    23    11    40 1   
    24    11    41 1   
    25    12    13 1   
    26    12    14 ar  
    27    12    18 ar  
    28    14    15 ar  
    29    14    42 1   
    30    15    16 ar  
    31    15    43 1   
    32    16    17 ar  
    33    16    20 1   
    34    17    18 ar  
    35    17    44 1   
    36    18    45 1   
    37    19    20 1   
    38    19    24 1   
    39    19    46 1   
    40    19    47 1   
    41    20    21 1   
    42    20    22 1   
    43    21    48 1   
    44    21    49 1   
    45    21    50 1   
    46    22    23 2   
    47    22    31 1   
    48    24    31 1   
    49    24    51 1   
    50    24    52 1   
    51    25    26 1   
    52    25    30 1   
    53    25    31 1   
    54    25    53 1   
    55    26    27 1   
    56    26    29 2   
    57    27    28 1   
    58    27    54 1   
    59    28    55 1   
    60    30    56 1   
    61    30    57 1   
    62    30    58 1   
@<TRIPOS>SUBSTRUCTURE
     1 541         1 TEMP              0 ****  ****    0 ROOT
