@<TRIPOS>MOLECULE
542
   64    70     1     0     0
SMALL
bcc


@<TRIPOS>ATOM
      1 F30          0.0000     0.0000     0.0000 f          1 542      -0.093000
      2 C29          1.3510     0.0000     0.0000 ca         1 542       0.071000
      3 C26          2.0420     0.0000     1.2010 ca         1 542      -0.126000
      4 C25          3.4220    -0.0010     1.2050 ca         1 542      -0.075500
      5 C28          2.0410    -0.0060    -1.2010 ca         1 542      -0.126000
      6 C27          3.4210    -0.0070    -1.2060 ca         1 542      -0.075500
      7 C24          4.1200    -0.0010    -0.0000 cp         1 542      -0.043000
      8 C22          5.6040    -0.0010    -0.0010 cq         1 542      -0.038000
      9 C21          6.2970    -0.0020    -1.2050 ca         1 542      -0.080000
     10 C23          6.3010     0.0040     1.2090 ca         1 542      -0.107000
     11 C33          7.6840     0.0050     1.2140 ca         1 542       0.020000
     12 O34          8.3570     0.0100     2.3950 oh         1 542      -0.248000
     13 C31          8.3880    -0.0010     0.0130 ca         1 542       0.129000
     14 O32          9.7450    -0.0010     0.0200 oh         1 542      -0.215000
     15 C20          7.6930    -0.0020    -1.2030 ca         1 542      -0.151000
     16 C18          8.4350    -0.0020    -2.4790 c2         1 542       0.275000
     17 O19          9.6500    -0.0020    -2.4760 o          1 542      -0.393000
     18 N17          7.7640    -0.0020    -3.6480 ns         1 542      -0.069000
     19 C16          8.5000    -0.0020    -4.9150 DU         1 542       0.105000
     20 C15          7.5240    -0.0020    -6.0630 c2         1 542      -0.116000
     21 C14          7.5960     0.9270    -6.9840 c2         1 542      -0.143000
     22 C6           6.6200     0.9270    -8.1320 DU         1 542       0.119000
     23 C4           5.8950     2.2880    -8.2210 c3         1 542       0.000000
     24 O5           6.5040     3.1160    -9.2130 oh         1 542      -0.278000
     25 C2           4.4530     1.9180    -8.6360 c3         1 542       0.015000
     26 O3           4.1280     2.5070    -9.8970 oh         1 542      -0.267000
     27 O13          5.5700    -0.0370    -7.8990 os         1 542      -0.251000
     28 C1           4.4780     0.3780    -8.7490 c3         1 542       0.061000
     29 N10          3.2160    -0.1890    -8.2700 na         1 542       0.284000
     30 C9           2.9660    -0.6570    -7.0130 c2         1 542      -0.208000
     31 C11          2.0640    -0.3420    -9.0010 c2         1 542      -0.116000
     32 N40          1.7040    -0.0720   -10.2510 n2         1 542      -0.152000
     33 C39          0.4860    -0.3430   -10.6730 c2         1 542       0.029000
     34 N38         -0.4280    -0.8870    -9.8920 n2         1 542      -0.216000
     35 C35         -0.1600    -1.1940    -8.6260 c2         1 542       0.081000
     36 C12          1.1260    -0.9240    -8.1310 c2         1 542      -0.253000
     37 N8           1.7410    -1.0890    -6.9340 n2         1 542      -0.070000
     38 N7          -1.1250    -1.7640    -7.8150 nu         1 542       0.088000
     39 C36         -2.4630    -2.0380    -8.3500 c3         1 542      -0.082000
     40 H26          1.4980     0.0000     2.1380 ha         1 542       0.121000
     41 H25          3.9620     0.0020     2.1450 ha         1 542       0.113000
     42 H28          1.4970    -0.0110    -2.1370 ha         1 542       0.121000
     43 H27          3.9600    -0.0090    -2.1460 ha         1 542       0.113000
     44 H21          5.7560    -0.0020    -2.1430 ha         1 542       0.115000
     45 H23          5.7570     0.0100     2.1450 ha         1 542       0.123000
     46 HO34         8.3290    -0.8510     2.7770 ho         1 542       0.209000
     47 HO32        10.0580     0.8340     0.3260 ho         1 542       0.211000
     48 HN17         6.7630    -0.0240    -3.6500 hn         1 542       0.109000
     49 H16          9.1220     0.8830    -4.9700 ha         1 542       0.070000
     50 H16A         9.1230    -0.8860    -4.9710 ha         1 542       0.070000
     51 H15          8.5470    -0.3530    -6.1290 DU         1 542       0.020000
     52 H14          7.6650     0.2730    -7.8450 DU         1 542       0.063000
     53 H6           7.1270     0.7110    -9.0650 ha         1 542       0.081000
     54 H4           5.8950     2.7790    -7.2550 h1         1 542       0.068000
     55 HO5          6.8310     3.9020    -8.8080 ho         1 542       0.190000
     56 H2           3.7490     2.2290    -7.8730 h1         1 542       0.060000
     57 HO3          3.5710     3.2550    -9.7600 ho         1 542       0.193000
     58 H1           4.6660     0.0800    -9.7730 h2         1 542       0.110000
     59 H9           3.6820    -0.6670    -6.2010 h5         1 542       0.168000
     60 H39          0.2250    -0.1090   -11.6980 h5         1 542       0.133000
     61 HN7         -0.9030    -2.0130    -6.8720 hn         1 542       0.101000
     62 H36         -2.9140    -1.1110    -8.6840 h1         1 542       0.050333
     63 H36A        -3.0770    -2.4800    -7.5760 h1         1 542       0.050333
     64 H36B        -2.3840    -2.7230    -9.1850 h1         1 542       0.050333
@<TRIPOS>BOND
     1     1     2 1   
     2     2     3 1   
     3     2     5 1   
     4     3     4 1   
     5     3    40 1   
     6     4     7 1   
     7     4    41 1   
     8     5     6 1   
     9     5    42 1   
    10     6     7 1   
    11     6    43 1   
    12     7     8 1   
    13     8     9 1   
    14     8    10 1   
    15     9    15 1   
    16     9    44 1   
    17    10    11 1   
    18    10    45 1   
    19    11    12 1   
    20    11    13 1   
    21    12    46 1   
    22    13    14 1   
    23    13    15 1   
    24    14    47 1   
    25    15    16 1   
    26    16    17 1   
    27    16    18 1   
    28    18    19 1   
    29    18    48 1   
    30    19    20 1   
    31    19    49 1   
    32    19    50 1   
    33    19    51 1   
    34    20    21 1   
    35    20    51 1   
    36    21    22 1   
    37    21    52 1   
    38    22    23 1   
    39    22    27 1   
    40    22    52 1   
    41    22    53 1   
    42    23    24 1   
    43    23    25 1   
    44    23    54 1   
    45    24    55 1   
    46    25    26 1   
    47    25    28 1   
    48    25    56 1   
    49    26    57 1   
    50    27    28 1   
    51    28    29 1   
    52    28    58 1   
    53    29    30 1   
    54    29    31 1   
    55    30    37 1   
    56    30    59 1   
    57    31    32 1   
    58    31    36 1   
    59    32    33 1   
    60    33    34 1   
    61    33    60 1   
    62    34    35 1   
    63    35    36 1   
    64    35    38 1   
    65    36    37 1   
    66    38    39 1   
    67    38    61 1   
    68    39    62 1   
    69    39    63 1   
    70    39    64 1   
@<TRIPOS>SUBSTRUCTURE
     1 542         1 TEMP              0 ****  ****    0 ROOT
