@<TRIPOS>MOLECULE
molecule
   64    68     1     0     0
SMALL
bcc


@<TRIPOS>ATOM
      1 F30          0.0000     0.0000     0.0000 f          1 542      -0.137900
      2 C29          1.3510     0.0000     0.0000 ca         1 542       0.137900
      3 C26          2.0420     0.0000     1.2010 ca         1 542      -0.162500
      4 C25          3.4220    -0.0010     1.2050 ca         1 542      -0.095000
      5 C28          2.0410    -0.0060    -1.2010 ca         1 542      -0.162500
      6 C27          3.4210    -0.0070    -1.2060 ca         1 542      -0.095000
      7 C24          4.1200    -0.0010    -0.0000 cp         1 542      -0.053000
      8 C22          5.6040    -0.0010    -0.0010 cp         1 542      -0.036000
      9 C21          6.2970    -0.0020    -1.2050 ca         1 542      -0.098000
     10 C23          6.3010     0.0040     1.2090 ca         1 542      -0.129000
     11 C33          7.6840     0.0050     1.2140 ca         1 542       0.063100
     12 O34          8.3570     0.0100     2.3950 oh         1 542      -0.501100
     13 C31          8.3880    -0.0010     0.0130 ca         1 542       0.155100
     14 O32          9.7450    -0.0010     0.0200 oh         1 542      -0.473100
     15 C20          7.6930    -0.0020    -1.2030 ca         1 542      -0.151600
     16 C18          8.4350    -0.0020    -2.4790 c          1 542       0.672700
     17 O19          9.6500    -0.0020    -2.4760 o          1 542      -0.579100
     18 N17          7.7640    -0.0020    -3.6480 ns         1 542      -0.587900
     19 C16          8.5000    -0.0020    -4.9150 c3         1 542       0.147200
     20 C15          7.5240    -0.0020    -6.0630 c2         1 542      -0.176200
     21 C14          7.5960     0.9270    -6.9840 c2         1 542      -0.171200
     22 C6           6.6200     0.9270    -8.1320 c3         1 542       0.160300
     23 C4           5.8950     2.2880    -8.2210 c3         1 542       0.096100
     24 O5           6.5040     3.1160    -9.2130 oh         1 542      -0.569800
     25 C2           4.4530     1.9180    -8.6360 c3         1 542       0.091100
     26 O3           4.1280     2.5070    -9.8970 oh         1 542      -0.558800
     27 O13          5.5700    -0.0370    -7.8990 os         1 542      -0.420600
     28 C1           4.4780     0.3780    -8.7490 c3         1 542       0.258800
     29 N10          3.2160    -0.1890    -8.2700 na         1 542      -0.256000
     30 C9           2.9660    -0.6570    -7.0130 cc         1 542       0.423700
     31 C11          2.0640    -0.3420    -9.0010 ca         1 542       0.480800
     32 N40          1.7040    -0.0720   -10.2510 nb         1 542      -0.790000
     33 C39          0.4860    -0.3430   -10.6730 ca         1 542       0.742900
     34 N38         -0.4280    -0.8870    -9.8920 nb         1 542      -0.833000
     35 C35         -0.1600    -1.1940    -8.6260 ca         1 542       0.786200
     36 C12          1.1260    -0.9240    -8.1310 ca         1 542      -0.213200
     37 N8           1.7410    -1.0890    -6.9340 nd         1 542      -0.588100
     38 N7          -1.1250    -1.7640    -7.8150 nu         1 542      -0.893900
     39 C36         -2.4630    -2.0380    -8.3500 c3         1 542       0.228100
     40 H26          1.4980     0.0000     2.1380 ha         1 542       0.150000
     41 H25          3.9620     0.0020     2.1450 ha         1 542       0.137000
     42 H28          1.4970    -0.0110    -2.1370 ha         1 542       0.150000
     43 H27          3.9600    -0.0090    -2.1460 ha         1 542       0.137000
     44 H21          5.7560    -0.0020    -2.1430 ha         1 542       0.133000
     45 H23          5.7570     0.0110     2.1450 ha         1 542       0.146000
     46 HO34         8.2330    -0.8160     2.8320 ho         1 542       0.417000
     47 HO32        10.0570    -0.8430     0.3090 ho         1 542       0.425000
     48 HN17         6.7630    -0.0210    -3.6500 hn         1 542       0.312500
     49 H16          9.1230    -0.8860    -4.9710 h1         1 542       0.061700
     50 H16A         9.1230     0.8830    -4.9700 h1         1 542       0.061700
     51 H15          6.7630    -0.7700    -6.1270 ha         1 542       0.146000
     52 H14          8.3570     1.6950    -6.9200 ha         1 542       0.144000
     53 H6           7.1270     0.7110    -9.0650 h1         1 542       0.090700
     54 H4           5.8950     2.7790    -7.2550 h1         1 542       0.052700
     55 HO5          6.7760     3.9290    -8.8200 ho         1 542       0.405000
     56 H2           3.7490     2.2290    -7.8730 h1         1 542       0.057700
     57 HO3          3.5670     3.2530    -9.7610 ho         1 542       0.410000
     58 H1           4.6660     0.0800    -9.7730 h2         1 542       0.113700
     59 H9           3.6820    -0.6670    -6.2010 h5         1 542       0.081800
     60 H39          0.2250    -0.1090   -11.6980 h5         1 542       0.063100
     61 HN7         -0.9030    -2.0130    -6.8720 hn         1 542       0.462800
     62 H36         -3.0780    -2.4790    -7.5750 h1         1 542       0.042700
     63 H36A        -2.3840    -2.7250    -9.1840 h1         1 542       0.042700
     64 H36B        -2.9130    -1.1120    -8.6860 h1         1 542       0.042700
@<TRIPOS>BOND
     1     1     2 1
     2     2     3 ar
     3     2     5 ar
     4     3     4 ar
     5     4     7 ar
     6     5     6 ar
     7     6     7 ar
     8     7     8 1
     9     8     9 ar
    10     8    10 ar
    11     9    15 ar
    12    10    11 ar
    13    11    12 1
    14    11    13 ar
    15    13    14 1
    16    13    15 ar
    17    15    16 1
    18    16    17 2
    19    16    18 1
    20    18    19 1
    21    19    20 1
    22    20    21 2
    23    21    22 1
    24    22    23 1
    25    22    27 1
    26    23    24 1
    27    23    25 1
    28    25    26 1
    29    25    28 1
    30    27    28 1
    31    28    29 1
    32    29    30 1
    33    29    31 1
    34    30    37 2
    35    31    32 ar
    36    31    36 ar
    37    32    33 ar
    38    33    34 ar
    39    34    35 ar
    40    35    36 ar
    41    35    38 1
    42    36    37 1
    43    38    39 1
    44     3    40 1
    45     4    41 1
    46     5    42 1
    47     6    43 1
    48     9    44 1
    49    10    45 1
    50    12    46 1
    51    14    47 1
    52    18    48 1
    53    19    49 1
    54    19    50 1
    55    20    51 1
    56    21    52 1
    57    22    53 1
    58    23    54 1
    59    24    55 1
    60    25    56 1
    61    26    57 1
    62    28    58 1
    63    30    59 1
    64    33    60 1
    65    38    61 1
    66    39    62 1
    67    39    63 1
    68    39    64 1
@<TRIPOS>SUBSTRUCTURE
     1 542         1 TEMP              0 ****  ****    0 ROOT
