@<TRIPOS>MOLECULE
544
   68    65     1     0     0
SMALL
bcc


@<TRIPOS>ATOM
      1 N           1.1820    1.1340   -0.2490 n3        1 544     -0.361000
      2 CA          2.0360    2.2600   -0.0720 c3        1 544     -0.072000
      3 CB          2.3130   -1.4250    0.1320 c1        1 544     -0.124000
      4 CG          1.8090   -2.2600    1.1380 ca        1 544     -0.234000
      5 CD1         0.7010   -1.8090    1.9000 ca        1 544      0.016000
      6 CD2         2.3520   -3.5340    1.4350 ca        1 544      0.016000
      7 CE1         0.1800   -2.5740    2.9300 ca        1 544     -0.232500
      8 CE2         1.8410   -4.3160    2.4570 ca        1 544     -0.232500
      9 CZ          0.7580   -3.8290    3.2130 ca        1 544      0.181000
     10 OH          0.1740   -4.5090    4.2570 os        1 544     -0.127000
     11 C1A        -0.1540    1.2420   -0.5050 c2        1 544      0.173000
     12 C1F        -0.9220    0.1050   -0.6930 c2        1 544     -0.456000
     13 C1B        -0.8140    2.5840   -0.5910 c3        1 544     -0.212000
     14 C1H        -2.9230   -1.2520   -1.1950 c2        1 544     -0.045000
     15 C1I        -2.4700   -2.0380   -2.1830 c2        1 544     -0.180000
     16 C1J        -5.6340   -5.7250   -1.0800 c1        1 544      0.143000
     17 C1K        -5.0540   -4.8060   -1.7960 c2        1 544     -0.548000
     18 C1L        -4.8460   -1.9940    0.4000 c1        1 544     -0.207000
     19 C1M        -3.9640   -1.6470   -0.3330 c1        1 544     -0.129000
     20 C1G        -2.3370    0.1110   -0.9650 c2        1 544      0.321000
     21 O1G        -3.0580    1.1220   -1.0340 o         1 544     -0.350000
     22 O3F        -3.3590   -8.0270    4.4960 os        1 544     -0.121000
     23 C3G        -3.4110   -6.6990    4.0070 c2        1 544      0.049000
     24 N3H        -2.2180   -6.1020    4.0550 n2        1 544     -0.109000
     25 C3C        -1.3260   -7.0480    4.6000 c2        1 544     -0.093000
     26 C3D        -2.0300   -8.2290    4.8670 c2        1 544     -0.034000
     27 C3E        -1.6870   -9.5410    5.4130 c3        1 544     -0.155000
     28 C3I        -4.7040   -6.2110    3.5550 c2        1 544      0.034000
     29 C3N        -5.7970   -7.0080    3.5140 c2        1 544     -0.113000
     30 C3M        -5.7870   -4.2830    2.4650 c1        1 544      0.143000
     31 C3L        -7.3190   -5.9730    1.8670 c2        1 544     -0.172000
     32 C3K        -7.0810   -6.4840    3.0830 c2        1 544     -0.152000
     33 C3J        -4.7880   -4.8190    3.1500 c2        1 544     -0.418000
     34 C3A         0.7860   -5.7030    4.6380 c2        1 544     -0.045000
     35 C3B         0.0750   -6.8240    4.8420 c2        1 544     -0.088000
     36 C           0.2900    0.1810   -4.6230 c1        1 544      0.419000
     37 HN          2.0350    2.9240   -0.9790 h1        1 544      0.070667
     38 HA1         3.1520   -1.7910   -0.4750 ha        1 544      0.058000
     39 HB1         3.0830    1.8930    0.0990 h1        1 544      0.070667
     40 HB2         1.7270    2.8790    0.8150 h1        1 544      0.070667
     41 HD11        0.2490   -0.8320    1.6480 ha        1 544      0.155500
     42 HD21        3.2010   -3.9060    0.8370 ha        1 544      0.155500
     43 HE11       -0.6820   -2.2320    3.5230 ha        1 544      0.159000
     44 HE21        2.2610   -5.3110    2.6620 ha        1 544      0.159000
     45 H1F1       -0.4510   -0.8880   -0.6390 ha        1 544      0.133000
     46 H1B1       -1.2990    2.6870   -1.5950 hc        1 544      0.104000
     47 H1B2       -1.6290    2.6360    0.1750 hc        1 544      0.104000
     48 H1B3       -0.1170    3.4420   -0.4370 hc        1 544      0.104000
     49 H1I1       -1.6500   -1.7240   -2.8460 ha        1 544      0.123500
     50 H1J1       -2.8940   -3.0300   -2.3870 ha        1 544      0.123500
     51 H1K1       -4.7300   -4.9200   -2.8410 ha        1 544      0.201500
     52 H1L1       -4.8360   -3.7980   -1.3860 ha        1 544      0.201500
     53 H1M1       -5.6260   -2.3120    1.0510 ha        1 544      0.239000
     54 H3E1       -2.3750   -9.8050    6.2560 hc        1 544      0.103333
     55 H3E2       -1.7850  -10.3270    4.6210 hc        1 544      0.103333
     56 H3E3       -0.6340   -9.5330    5.7900 hc        1 544      0.103333
     57 H3N1       -5.7620   -8.0600    3.8400 ha        1 544      0.157000
     58 H3M1       -3.9450   -4.1560    3.4450 ha        1 544      0.210000
     59 H3L1       -7.8720   -6.5180    3.8540 ha        1 544      0.138000
     60 H3K1       -8.3000   -5.5510    1.6050 ha        1 544      0.144000
     61 H3J1       -6.5940   -6.0070    1.0330 ha        1 544      0.144000
     62 H3A1       -1.9840   -3.3730    4.8720 ha        1 544      0.001500
     63 H3A2       -2.5360   -2.9800    4.8470 ha        1 544      0.001500
     64 H3B1        1.8640   -5.6200    4.8440 h4        1 544      0.144000
     65 H3B2        0.6080   -7.6970    5.2640 ha        1 544      0.141000
     66 O2          0.7140    1.2850   -4.7470 o         1 544     -0.209000
     67 O1         -0.1280   -0.9270   -4.5120 o         1 544     -0.209000
     68 HN3         1.5970    0.1860   -0.1460 hn        1 544      0.306000
@<TRIPOS>BOND
     1    1    2 1
     2    1   11 1
     3    1   68 1
     4    2   37 1
     5    2   39 1
     6    2   40 1
     7    3    4 1
     8    3   38 1
     9    4    5 1
    10    4    6 1
    11    5    7 1
    12    5   41 1
    13    6    8 1
    14    6   42 1
    15    7    9 1
    16    7   43 1
    17    8    9 1
    18    8   44 1
    19    9   10 1
    20   10   34 1
    21   11   12 1
    22   11   13 1
    23   12   20 1
    24   12   45 1
    25   13   46 1
    26   13   47 1
    27   13   48 1
    28   14   15 1
    29   14   19 1
    30   14   20 1
    31   15   49 1
    32   15   50 1
    33   16   17 1
    34   17   51 1
    35   17   52 1
    36   18   19 1
    37   18   53 1
    38   20   21 1
    39   22   23 1
    40   22   26 1
    41   23   24 1
    42   23   28 1
    43   24   25 1
    44   25   26 1
    45   25   35 1
    46   26   27 1
    47   27   54 1
    48   27   55 1
    49   27   56 1
    50   28   29 1
    51   28   33 1
    52   29   32 1
    53   29   57 1
    54   30   33 1
    55   31   32 1
    56   31   60 1
    57   31   61 1
    58   32   59 1
    59   33   58 1
    60   34   35 1
    61   34   64 1
    62   35   65 1
    63   36   66 1
    64   36   67 1
    65   62   63 1
@<TRIPOS>SUBSTRUCTURE
     1 544         1 TEMP              0 ****  ****    0 ROOT
