@<TRIPOS>MOLECULE
545
   67    68     1     0     0
SMALL
bcc


@<TRIPOS>ATOM
      1 C8           0.0000     0.0000     0.0000 ca         1 545      -0.079000
      2 C7           1.3810     0.0000     0.0000 ca         1 545      -0.120000
      3 C12          2.0740     0.0000     1.2010 ca         1 545       0.167100
      4 C11          1.3770     0.0000     2.4000 ca         1 545      -0.120000
      5 C10         -0.0050     0.0070     2.3950 ca         1 545      -0.079000
      6 C9          -0.6920     0.0000     1.1970 ca         1 545      -0.202300
      7 C14         -2.1990     0.0010     1.1950 c3         1 545       0.043900
      8 C15         -2.7100    -1.4400     1.1940 c3         1 545      -0.150500
      9 C17         -4.2170    -1.4410     1.1910 c          1 545       0.538100
     10 N19         -4.8930    -1.4420     2.3570 ns         1 545      -0.071900
     11 C20         -6.3570    -1.4380     2.3540 c3         1 545      -0.041300
     12 C21         -6.8580    -0.4070     3.3320 c          1 545       0.712100
     13 O23         -8.1500    -0.0410     3.3190 os         1 545      -0.408900
     14 C24         -8.6330     0.9520     4.2610 c3         1 545       0.236400
     15 C25        -10.1280     1.1850     4.0340 c3         1 545      -0.040400
     16 C26        -10.6380     2.2320     5.0270 c3         1 545      -0.020400
     17 C27        -12.1330     2.4650     4.8000 c3         1 545       0.008900
     18 O18         -4.8210    -1.4410     0.1400 o          1 545      -0.645100
     19 N16         -2.2180    -2.1340    -0.0050 nz         1 545       0.086400
     20 O22         -6.0980     0.0910     4.1270 o          1 545      -0.585000
     21 C6          -6.8710    -2.8190     2.7610 c3         1 545       0.102500
     22 N5          -6.2730    -3.2020     4.0450 n3         1 545      -0.311100
     23 C4          -6.9010    -4.4620     4.4600 c3         1 545       0.095800
     24 C3          -6.5190    -5.5740     3.4810 c3         1 545       0.169100
     25 C2          -7.0370    -5.2160     2.0850 c3         1 545       0.116800
     26 C1          -6.4880    -3.8410     1.6900 c3         1 545       0.206100
     27 O28         -6.6850    -2.1890     5.0170 oh         1 545      -0.467300
     28 O32         -5.0980    -5.7120     3.4420 oh         1 545      -0.582800
     29 O29         -6.5950    -6.1960     1.1450 oh         1 545      -0.587800
     30 C30         -8.5660    -5.1720     2.0990 c3         1 545       0.178400
     31 O31         -9.0760    -6.4550     2.4680 oh         1 545      -0.603800
     32 O64         -7.0450    -3.4460     0.4340 oh         1 545      -0.579800
     33 O13          3.4330    -0.0010     1.2030 oh         1 545      -0.483100
     34 H8          -0.5410    -0.0020    -0.9380 ha         1 545       0.106500
     35 H7           1.9230    -0.0000    -0.9380 ha         1 545       0.132500
     36 H11          1.9150     0.0030     3.3400 ha         1 545       0.132500
     37 H10         -0.5490     0.0070     3.3320 ha         1 545       0.106500
     38 H141        -2.5590     0.5120     0.3090 hc         1 545       0.060200
     39 H142        -2.5620     0.5120     2.0780 hc         1 545       0.060200
     40 H15         -2.3500    -1.9510     2.0790 hx         1 545       0.094700
     41 H19         -4.3940    -1.3950     3.2240 hn         1 545       0.204500
     42 H20         -6.7150    -1.1980     1.3610 h1         1 545       0.108700
     43 H241        -8.0970     1.8820     4.1120 h1         1 545       0.012200
     44 H242        -8.4720     0.6000     5.2720 h1         1 545       0.012200
     45 H251       -10.6650     0.2560     4.1830 hc         1 545       0.024700
     46 H252       -10.2900     1.5370     3.0230 hc         1 545       0.024700
     47 H261       -10.4760     1.8800     6.0380 hc         1 545       0.014700
     48 H262       -10.1010     3.1620     4.8780 hc         1 545       0.014700
     49 H271       -12.5040     3.1680     5.5360 hc         1 545       0.004700
     50 H272       -12.2900     2.8660     3.8060 hc         1 545       0.004700
     51 H273       -12.6630     1.5260     4.8990 hc         1 545       0.004700
     52 H161        -2.3200    -1.5360    -0.8010 hn         1 545       0.230467
     53 H162        -1.2520    -2.3660     0.1170 hn         1 545       0.230467
     54 H6          -7.9490    -2.7920     2.8620 h1         1 545       0.065700
     55 H41         -6.5570    -4.7240     5.4530 h1         1 545       0.037700
     56 H42         -7.9770    -4.3420     4.4650 h1         1 545       0.037700
     57 H3          -6.9680    -6.5060     3.8030 h1         1 545       0.035700
     58 H1          -5.4090    -3.8940     1.6110 h1         1 545       0.013700
     59 H28         -6.3160    -2.3940     5.8600 ho         1 545       0.422000
     60 H32         -4.8480    -6.5120     3.8730 ho         1 545       0.400000
     61 H29         -6.9920    -7.0270     1.3450 ho         1 545       0.420000
     62 H301        -8.9290    -4.9090     1.1130 h1         1 545       0.016700
     63 H302        -8.9000    -4.4310     2.8160 h1         1 545       0.016700
     64 H31         -9.9710    -6.5320     2.1810 ho         1 545       0.412000
     65 H64         -6.6700    -3.9700    -0.2550 ho         1 545       0.413000
     66 H13          3.7460    -0.8900     1.1790 ho         1 545       0.415000
     67 H163        -2.7550    -2.9660    -0.1530 hn         1 545       0.230467
@<TRIPOS>BOND
     1     1     2 ar  
     2     1     6 ar  
     3     1    34 1   
     4     2     3 ar  
     5     2    35 1   
     6     3     4 ar  
     7     3    33 1   
     8     4     5 ar  
     9     4    36 1   
    10     5     6 ar  
    11     5    37 1   
    12     6     7 1   
    13     7     8 1   
    14     7    38 1   
    15     7    39 1   
    16     8     9 1   
    17     8    19 1   
    18     8    40 1   
    19     9    10 1   
    20     9    18 2   
    21    10    11 1   
    22    10    41 1   
    23    11    12 1   
    24    11    21 1   
    25    11    42 1   
    26    12    13 1   
    27    12    20 2   
    28    13    14 1   
    29    14    15 1   
    30    14    43 1   
    31    14    44 1   
    32    15    16 1   
    33    15    45 1   
    34    15    46 1   
    35    16    17 1   
    36    16    47 1   
    37    16    48 1   
    38    17    49 1   
    39    17    50 1   
    40    17    51 1   
    41    19    52 1   
    42    19    53 1   
    43    19    67 1   
    44    21    22 1   
    45    21    26 1   
    46    21    54 1   
    47    22    23 1   
    48    22    27 1   
    49    23    24 1   
    50    23    55 1   
    51    23    56 1   
    52    24    25 1   
    53    24    28 1   
    54    24    57 1   
    55    25    26 1   
    56    25    29 1   
    57    25    30 1   
    58    26    32 1   
    59    26    58 1   
    60    27    59 1   
    61    28    60 1   
    62    29    61 1   
    63    30    31 1   
    64    30    62 1   
    65    30    63 1   
    66    31    64 1   
    67    32    65 1   
    68    33    66 1   
@<TRIPOS>SUBSTRUCTURE
     1 545         1 TEMP              0 ****  ****    0 ROOT
