@<TRIPOS>MOLECULE
molecule
   41    44     1     0     0
SMALL
bcc


@<TRIPOS>ATOM
      1 C1           0.0000     0.0000     0.0000 c3         1 546      -0.054800
      2 N1           4.2510     0.0000     0.0000 nb         1 546      -0.712000
      3 O1           4.9830    -3.7670    -1.8330 os         1 546      -0.435100
      4 C2           1.5070    -0.0000    -0.0010 ca         1 546      -0.004300
      5 N2           0.5970     0.8700    -2.8730 nc         1 546      -0.569300
      6 C3           2.2170    -0.0010     1.1860 ca         1 546      -0.266300
      7 N3           1.7070    -0.8950    -3.5050 na         1 546      -0.139000
      8 C4           3.6010     0.0000     1.1480 ca         1 546       0.428200
      9 N4           3.3570    -2.3740    -2.7090 nb         1 546      -0.793000
     10 C5           3.6200    -0.0000    -1.1570 ca         1 546       0.469200
     11 N5           1.6110    -2.3380    -5.8600 nc         1 546      -0.688000
     12 C6           2.2250     0.0000    -1.2030 ca         1 546      -0.217200
     13 C7           1.5170    -0.0010    -2.5000 cd         1 546       0.441400
     14 C8           0.1690     0.5800    -4.0990 cc         1 546       0.079400
     15 C9           0.8530    -0.5380    -4.5320 cd         1 546      -0.247600
     16 C10          2.5260    -1.9990    -3.6680 ca         1 546       0.466500
     17 C11          2.4620    -2.7180    -4.8750 ca         1 546       0.249300
     18 C12          3.2910    -3.8370    -5.0440 ca         1 546      -0.085300
     19 C13          4.1400    -4.1850    -4.0130 ca         1 546      -0.269300
     20 C14          4.1480    -3.4230    -2.8460 ca         1 546       0.690600
     21 C15          4.9490    -2.9510    -0.6610 c3         1 546       0.126700
     22 C16          0.8310    -1.2970    -5.7200 cd         1 546       0.489600
     23 C17         -0.1000    -0.9070    -6.8380 c3         1 546      -0.139400
     24 C18         -0.8780     1.3350    -4.8750 c3         1 546      -0.011900
     25 H1          -0.3610     0.9060    -0.4720 hc         1 546       0.055700
     26 H1A         -0.3610    -0.0430     1.0210 hc         1 546       0.055700
     27 H1B         -0.3620    -0.8620    -0.5480 hc         1 546       0.055700
     28 H3           1.6960    -0.0010     2.1360 ha         1 546       0.142000
     29 H4           4.1590     0.0000     2.0760 h4         1 546       0.022100
     30 H5           4.1880     0.0000    -2.0790 h4         1 546       0.032100
     31 H12          3.2670    -4.4130    -5.9610 ha         1 546       0.167000
     32 H13          4.6930    -5.1150    -4.0570 ha         1 546       0.161000
     33 H15          3.9270    -2.8610    -0.3120 h1         1 546       0.055367
     34 H15A         5.5560    -3.4050     0.1130 h1         1 546       0.055367
     35 H15B         5.3390    -1.9670    -0.8940 h1         1 546       0.055367
     36 H17          0.0190    -1.5970    -7.6650 hc         1 546       0.059367
     37 H17A        -1.1240    -0.9420    -6.4840 hc         1 546       0.059367
     38 H17B         0.1340     0.0970    -7.1690 hc         1 546       0.059367
     39 H18         -1.7070     0.6750    -5.1000 hc         1 546       0.051033
     40 H18A        -1.2320     2.1710    -4.2840 hc         1 546       0.051033
     41 H18B        -0.4480     1.7030    -5.7980 hc         1 546       0.051033
@<TRIPOS>BOND
     1     1     4 1   
     2     1    25 1   
     3     1    26 1   
     4     1    27 1   
     5     8     2 ar  
     6     2    10 ar  
     7    21     3 1   
     8     3    20 1   
     9     4     6 ar  
    10     4    12 ar  
    11    13     5 2   
    12     5    14 1   
    13     6     8 ar  
    14     6    28 1   
    15    16     7 1   
    16     7    13 1   
    17     7    15 1   
    18     8    29 1   
    19    20     9 ar  
    20     9    16 ar  
    21    10    12 ar  
    22    10    30 1   
    23    17    11 1   
    24    11    22 2   
    25    12    13 1   
    26    15    14 2   
    27    14    24 1   
    28    15    22 1   
    29    16    17 ar  
    30    18    17 ar  
    31    19    18 ar  
    32    18    31 1   
    33    20    19 ar  
    34    19    32 1   
    35    21    33 1   
    36    21    34 1   
    37    21    35 1   
    38    22    23 1   
    39    23    36 1   
    40    23    37 1   
    41    23    38 1   
    42    24    39 1   
    43    24    40 1   
    44    24    41 1   
@<TRIPOS>SUBSTRUCTURE
     1 546         1 TEMP              0 ****  ****    0 ROOT
