@<TRIPOS>MOLECULE
546
   41    44     1     0     0
SMALL
bcc


@<TRIPOS>ATOM
      1 C1          0.0190   -0.2590    0.0310 c3        1 546     -0.065800
      2 N1          4.2800    0.4010   -0.0240 nb        1 546     -0.681000
      3 O1          4.9580   -3.9050   -1.8120 os        1 546     -0.441100
      4 C2          1.4820   -0.0410   -0.0020 ca        1 546      0.007700
      5 N2          0.5460    0.9880   -2.8730 nc        1 546     -0.550300
      6 C3          2.2120    0.0460    1.1920 ca        1 546     -0.261300
      7 N3          1.7040   -0.8560   -3.5250 na        1 546     -0.178000
      8 C4          3.5960    0.2690    1.1310 ca        1 546      0.405200
      9 N4          3.3440   -2.3500   -2.6040 nb        1 546     -0.744000
     10 C5          3.5790    0.3170   -1.1680 ca        1 546      0.444200
     11 N5          1.6000   -2.3710   -5.9350 nc        1 546     -0.656000
     12 C6          2.1840    0.0970   -1.2120 ca        1 546     -0.214200
     13 C7          1.4870    0.0800   -2.4960 cd        1 546      0.447400
     14 C8          0.1370    0.6530   -4.1610 cc        1 546      0.068400
     15 C9          0.8380   -0.4960   -4.6000 cd        1 546     -0.223600
     16 C10         2.5210   -1.9950   -3.6400 ca        1 546      0.461500
     17 C11         2.4350   -2.7340   -4.8790 ca        1 546      0.233300
     18 C12         3.2570   -3.8880   -4.9990 ca        1 546     -0.091300
     19 C13         4.0860   -4.2580   -3.9660 ca        1 546     -0.264300
     20 C14         4.0960   -3.4540   -2.7850 ca        1 546      0.658600
     21 C15         5.0510   -3.1620   -0.5950 c3        1 546      0.119700
     22 C16         0.8410   -1.3060   -5.8060 cd        1 546      0.484600
     23 C17        -0.0630   -0.8730   -6.9150 c3        1 546     -0.152400
     24 C18        -0.8810    1.4150   -4.9070 c3        1 546     -0.024900
     25 H1         -0.3090   -0.6420    1.0280 hc        1 546      0.057367
     26 H1A        -0.2900   -0.9930   -0.7540 hc        1 546      0.057367
     27 H1B        -0.5110    0.7070   -0.1700 hc        1 546      0.057367
     28 H3          1.7080   -0.0540    2.1630 ha        1 546      0.145000
     29 H4          4.1970    0.3500    2.0540 h4        1 546      0.021100
     30 H5          4.1600    0.4290   -2.1010 h4        1 546      0.029100
     31 H12         3.2210   -4.4810   -5.9290 ha        1 546      0.164000
     32 H13         4.7360   -5.1420   -4.0170 ha        1 546      0.168000
     33 H15         5.3930   -2.1180   -0.7960 h1        1 546      0.057033
     34 H15A        4.0710   -3.1630   -0.0620 h1        1 546      0.057033
     35 H15B        5.8220   -3.7320   -0.0160 h1        1 546      0.057033
     36 H17        -1.0920   -0.7080   -6.5120 hc        1 546      0.062367
     37 H17A        0.3190    0.0880   -7.3430 hc        1 546      0.062367
     38 H17B       -0.1140   -1.6320   -7.7340 hc        1 546      0.062367
     39 H18        -1.1160    2.3860   -4.4040 hc        1 546      0.053033
     40 H18A       -1.8260    0.8180   -4.9780 hc        1 546      0.053033
     41 H18B       -0.5160    1.6310   -5.9420 hc        1 546      0.053033
@<TRIPOS>BOND
     1    1    4 1   
     2    1   25 1   
     3    1   26 1   
     4    1   27 1   
     5    2    8 ar  
     6    2   10 ar  
     7    3   20 1   
     8    3   21 1   
     9    4    6 ar  
    10    4   12 ar  
    11    5   13 2   
    12    5   14 1   
    13    6    8 ar  
    14    6   28 1   
    15    7   13 1   
    16    7   15 1   
    17    7   16 1   
    18    8   29 1   
    19    9   16 ar  
    20    9   20 ar  
    21   10   12 ar  
    22   10   30 1   
    23   11   17 1   
    24   11   22 2   
    25   12   13 1   
    26   14   15 2   
    27   14   24 1   
    28   15   22 1   
    29   16   17 ar  
    30   17   18 ar  
    31   18   19 ar  
    32   18   31 1   
    33   19   20 ar  
    34   19   32 1   
    35   21   33 1   
    36   21   34 1   
    37   21   35 1   
    38   22   23 1   
    39   23   36 1   
    40   23   37 1   
    41   23   38 1   
    42   24   39 1   
    43   24   40 1   
    44   24   41 1   
@<TRIPOS>SUBSTRUCTURE
     1 546         1 TEMP              0 ****  ****    0 ROOT
