@<TRIPOS>MOLECULE
547
   56    60     1     0     0
SMALL
bcc


@<TRIPOS>ATOM
      1 C1          0.0320    0.1080   -0.1160 ca        1 547      0.447200
      2 N2          1.3770    0.1940   -0.1090 nb        1 547     -0.677000
      3 C3          1.9040    0.1360    1.1370 ca        1 547      0.595600
      4 C4          1.1880   -0.0010    2.3720 ca        1 547     -0.274100
      5 C5         -0.2240   -0.0980    2.3120 ca        1 547      0.257600
      6 C6         -0.7920   -0.0290    1.0150 ca        1 547     -0.346300
      7 O9          3.2770    0.2160    1.3890 os        1 547     -0.304400
      8 C10         3.4220    0.1330    2.7970 cc        1 547      0.101900
      9 C11         2.1910    0.0070    3.4210 cd        1 547     -0.050400
     10 C12         1.9110   -0.0820    4.8400 ca        1 547     -0.041800
     11 C13         1.4820   -1.2940    5.4020 ca        1 547     -0.118000
     12 C14         1.2060   -1.3750    6.7650 ca        1 547     -0.136500
     13 C15         1.3510   -0.2520    7.5800 ca        1 547     -0.127000
     14 C16         1.7740    0.9560    7.0270 ca        1 547     -0.136500
     15 C17         2.0550    1.0440    5.6640 ca        1 547     -0.118000
     16 C23         4.7890    0.1890    3.2610 ca        1 547     -0.043800
     17 C24         5.1150   -0.2110    4.5660 ca        1 547     -0.101500
     18 C25         6.4350   -0.1550    5.0060 ca        1 547     -0.136000
     19 C26         7.4420    0.2960    4.1540 ca        1 547     -0.117000
     20 C27         7.1260    0.6920    2.8530 ca        1 547     -0.136000
     21 C28         5.8090    0.6390    2.4050 ca        1 547     -0.101500
     22 N34        -0.9740   -0.3150    3.4530 nh        1 547     -0.750600
     23 C35        -2.3950   -0.0720    3.4400 c3        1 547      0.198800
     24 C36        -2.9990   -0.1080    4.8640 c3        1 547      0.161800
     25 N39        -4.4460    0.0440    4.8370 n3        1 547     -0.732600
     26 C42        -5.0800   -0.5570    6.0040 c3        1 547      0.169300
     27 C43        -6.6110   -0.3830    6.0080 c3        1 547      0.161800
     28 N44        -7.0220    0.9910    5.7940 n3        1 547     -0.820200
     29 C45        -6.3950    1.5950    4.6360 c3        1 547      0.161800
     30 C46        -4.8630    1.4250    4.6290 c3        1 547      0.169300
     31 H1         -0.4250    0.1540   -1.1230 h4        1 547      0.025100
     32 H6         -1.8800   -0.0900    0.8760 ha        1 547      0.147000
     33 H13         1.3670   -2.1800    4.7590 ha        1 547      0.146000
     34 H14         0.8750   -2.3310    7.1990 ha        1 547      0.136000
     35 H15         1.1330   -0.3200    8.6560 ha        1 547      0.134000
     36 H16         1.8910    1.8440    7.6660 ha        1 547      0.136000
     37 H17         2.3940    1.9970    5.2310 ha        1 547      0.146000
     38 H24         4.3220   -0.5700    5.2410 ha        1 547      0.149000
     39 H25         6.6810   -0.4710    6.0310 ha        1 547      0.135000
     40 H26         8.4840    0.3380    4.5050 ha        1 547      0.133000
     41 H27         7.9180    1.0450    2.1780 ha        1 547      0.135000
     42 H28         5.5590    0.9460    1.3770 ha        1 547      0.149000
     43 HN34       -0.5020   -0.1630    4.3200 hn        1 547      0.429800
     44 H351       -2.8810   -0.8720    2.8100 h1        1 547      0.050700
     45 H352       -2.6210    0.9250    2.9600 h1        1 547      0.050700
     46 H361       -2.7530   -1.1050    5.3290 h1        1 547      0.040700
     47 H362       -2.5060    0.6920    5.4920 h1        1 547      0.040700
     48 H421       -4.6660   -0.1350    6.9660 h1        1 547      0.038200
     49 H422       -4.8600   -1.6610    5.9850 h1        1 547      0.038200
     50 H431       -7.0490   -1.0840    5.2380 h1        1 547      0.036200
     51 H432       -6.9920   -0.6990    7.0190 h1        1 547      0.036200
     52 HN44       -8.0200    1.0420    5.7110 hn        1 547      0.364800
     53 H451       -6.6190    2.6990    4.6640 h1        1 547      0.036200
     54 H452       -6.8020    1.1840    3.6660 h1        1 547      0.036200
     55 H461       -4.4200    2.1150    5.4060 h1        1 547      0.038200
     56 H462       -4.4850    1.7510    3.6210 h1        1 547      0.038200
@<TRIPOS>BOND
     1    1    2 ar
     2    1    6 ar
     3    1   31 1
     4    2    3 ar
     5    3    4 ar
     6    3    7 1
     7    4    5 ar
     8    4    9 1
     9    5    6 ar
    10    5   22 1
    11    6   32 1
    12    7    8 1
    13    8    9 2
    14    8   16 1
    15    9   10 1
    16   10   11 ar
    17   10   15 ar
    18   11   12 ar
    19   11   33 1
    20   12   13 ar
    21   12   34 1
    22   13   14 ar
    23   13   35 1
    24   14   15 ar
    25   14   36 1
    26   15   37 1
    27   16   17 ar
    28   16   21 ar
    29   17   18 ar
    30   17   38 1
    31   18   19 ar
    32   18   39 1
    33   19   20 ar
    34   19   40 1
    35   20   21 ar
    36   20   41 1
    37   21   42 1
    38   22   23 1
    39   22   43 1
    40   23   24 1
    41   23   44 1
    42   23   45 1
    43   24   25 1
    44   24   46 1
    45   24   47 1
    46   25   26 1
    47   25   30 1
    48   26   27 1
    49   26   48 1
    50   26   49 1
    51   27   28 1
    52   27   50 1
    53   27   51 1
    54   28   29 1
    55   28   52 1
    56   29   30 1
    57   29   53 1
    58   29   54 1
    59   30   55 1
    60   30   56 1
@<TRIPOS>SUBSTRUCTURE
     1 547         1 TEMP              0 ****  ****    0 ROOT
