@<TRIPOS>MOLECULE
molecule
   41    44     1     0     0
SMALL
bcc


@<TRIPOS>ATOM
      1 C1           0.0000     0.0000     0.0000 c3         1 548      -0.049800
      2 F1           1.8860    -5.0420    -0.0580 f          1 548      -0.218300
      3 N1           3.7240     0.0000     0.0000 nb         1 548      -0.672000
      4 Cl1         -1.2770    -5.8550    -4.7980 cl         1 548      -0.055400
      5 C2           1.4260     0.0010    -0.4850 ca         1 548      -0.177600
      6 F2           3.5060    -3.9280    -1.2230 f          1 548      -0.218300
      7 N2           0.0440     1.0740    -3.3590 nc         1 548      -0.555300
      8 C3           2.4720     0.0000     0.4150 ca         1 548       0.418200
      9 F3           2.9500    -6.0670    -1.8020 f          1 548      -0.218300
     10 N3           0.0640    -1.1040    -3.4110 na         1 548      -0.022200
     11 C4           4.0360     0.0010    -1.2820 ca         1 548       0.414200
     12 N4          -1.4620    -2.8860    -4.8760 nc         1 548      -0.698000
     13 C5           3.0560     0.0010    -2.2500 ca         1 548      -0.221300
     14 C6           1.7120     0.0010    -1.8560 ca         1 548      -0.078900
     15 C7           0.6260     0.0000    -2.8570 cd         1 548       0.423400
     16 C8          -0.8900     0.7150    -4.2330 cc         1 548       0.090400
     17 C9          -0.9070    -0.6640    -4.2930 cd         1 548      -0.265600
     18 C10          0.2660    -2.4670    -3.2680 ca         1 548      -0.092600
     19 C11          1.2270    -2.9590    -2.3960 ca         1 548      -0.088000
     20 C12          1.4110    -4.3200    -2.2690 ca         1 548      -0.163300
     21 C13          0.6400    -5.2050    -3.0070 ca         1 548      -0.082000
     22 C14         -0.3190    -4.7370    -3.8790 ca         1 548      -0.007900
     23 C15         -0.5190    -3.3590    -4.0210 ca         1 548       0.432600
     24 C16         -1.6640    -1.6030    -5.0230 cd         1 548       0.525600
     25 C17         -2.7220    -1.1220    -5.9830 c3         1 548      -0.145400
     26 C18          2.4570    -4.8490    -1.3210 c3         1 548       0.678200
     27 C19         -1.7760     1.6480    -5.0190 c3         1 548      -0.013900
     28 H1          -0.0140    -0.0790     1.0800 hc         1 548       0.052700
     29 H1A         -0.5280    -0.8430    -0.4300 hc         1 548       0.052700
     30 H1B         -0.4840     0.9210    -0.3010 hc         1 548       0.052700
     31 H3           2.2620    -0.0010     1.4780 h4         1 548       0.031100
     32 H4           5.0790     0.0010    -1.5780 h4         1 548       0.031100
     33 H5           3.3200     0.0010    -3.3010 ha         1 548       0.150000
     34 H11          1.8330    -2.2740    -1.8160 ha         1 548       0.169000
     35 H13          0.7940    -6.2720    -2.8990 ha         1 548       0.167000
     36 H17         -2.2620    -0.5140    -6.7520 hc         1 548       0.064367
     37 H17A        -3.2100    -1.9750    -6.4400 hc         1 548       0.064367
     38 H17B        -3.4550    -0.5320    -5.4460 hc         1 548       0.064367
     39 H19         -1.5440     2.6730    -4.7560 hc         1 548       0.053700
     40 H19A        -1.6060     1.4990    -6.0790 hc         1 548       0.053700
     41 H19B        -2.8140     1.4410    -4.7870 hc         1 548       0.053700
@<TRIPOS>BOND
     1     1     5 1
     2     1    28 1
     3     1    29 1
     4     1    30 1
     5     2    26 1
     6     3     8 ar
     7     3    11 ar
     8    22     4 1
     9     5     8 ar
    10     5    14 ar
    11     6    26 1
    12    15     7 2
    13     7    16 1
    14     8    31 1
    15     9    26 1
    16    18    10 1
    17    10    15 1
    18    10    17 1
    19    11    13 ar
    20    11    32 1
    21    23    12 1
    22    12    24 2
    23    13    14 ar
    24    13    33 1
    25    14    15 1
    26    17    16 2
    27    16    27 1
    28    17    24 1
    29    19    18 ar
    30    18    23 ar
    31    20    19 ar
    32    19    34 1
    33    26    20 1
    34    20    21 ar
    35    21    22 ar
    36    21    35 1
    37    22    23 ar
    38    24    25 1
    39    25    36 1
    40    25    37 1
    41    25    38 1
    42    27    39 1
    43    27    40 1
    44    27    41 1
@<TRIPOS>SUBSTRUCTURE
     1 548         1 TEMP              0 ****  ****    0 ROOT
