@<TRIPOS>MOLECULE
548
   41    44     1     0     0
SMALL
bcc


@<TRIPOS>ATOM
      1 C1          0.0030    0.2580    0.0720 c3        1 548     -0.057800
      2 F1          2.0300   -5.0800   -0.0670 f         1 548     -0.231633
      3 N1          3.7690    0.1210    0.0640 nb        1 548     -0.643000
      4 CL1        -1.1520   -5.9120   -4.9360 cl        1 548     -0.040400
      5 C2          1.3840    0.1380   -0.4370 ca        1 548     -0.151600
      6 F2          3.6260   -4.2410   -1.2720 f         1 548     -0.231633
      7 N2         -0.0170    1.1120   -3.2600 nc        1 548     -0.539300
      8 C3          2.4840    0.1940    0.4510 ca        1 548      0.389200
      9 F3          2.9190   -6.2550   -1.6580 f         1 548     -0.231633
     10 N3          0.0510   -1.1580   -3.4210 na        1 548     -0.062200
     11 C4          4.0140   -0.0170   -1.2540 ca        1 548      0.387200
     12 N4         -1.4680   -2.9590   -5.0090 nc        1 548     -0.669000
     13 C5          3.0020   -0.0870   -2.2260 ca        1 548     -0.217300
     14 C6          1.6680   -0.0120   -1.8040 ca        1 548     -0.085900
     15 C7          0.5890   -0.0170   -2.7990 cd        1 548      0.425400
     16 C8         -0.9650    0.7190   -4.1990 cc        1 548      0.082400
     17 C9         -0.9500   -0.6930   -4.3230 cd        1 548     -0.241600
     18 C10         0.2920   -2.5320   -3.2960 ca        1 548     -0.063600
     19 C11         1.2560   -3.0600   -2.4140 ca        1 548     -0.093000
     20 C12         1.4420   -4.4330   -2.3370 ca        1 548     -0.146300
     21 C13         0.6920   -5.3130   -3.1220 ca        1 548     -0.092000
     22 C14        -0.2630   -4.8140   -4.0000 ca        1 548     -0.014900
     23 C15        -0.4950   -3.4170   -4.1160 ca        1 548      0.405600
     24 C16        -1.6850   -1.6670   -5.1100 cd        1 548      0.518600
     25 C17        -2.7110   -1.1390   -6.0600 c3        1 548     -0.158400
     26 C18         2.4770   -4.9890   -1.3630 c3        1 548      0.690200
     27 C19        -1.8320    1.6680   -4.9200 c3        1 548     -0.028900
     28 H1         -0.4110    1.2660   -0.1850 hc        1 548      0.056367
     29 H1A        -0.6580   -0.5170   -0.3900 hc        1 548      0.056367
     30 H1B        -0.0290    0.1350    1.1830 hc        1 548      0.056367
     31 H3          2.3140    0.3090    1.5370 h4        1 548      0.030100
     32 H4          5.0800   -0.0720   -1.5430 h4        1 548      0.031100
     33 H5          3.2550   -0.1860   -3.2900 ha        1 548      0.155000
     34 H11         1.8710   -2.3930   -1.7840 ha        1 548      0.172000
     35 H13         0.8650   -6.4010   -3.0430 ha        1 548      0.173000
     36 H17        -2.1930   -0.5970   -6.8910 hc        1 548      0.067367
     37 H17A       -3.3820   -0.4240   -5.5220 hc        1 548      0.067367
     38 H17B       -3.3340   -1.9570   -6.5010 hc        1 548      0.067367
     39 H19        -1.4930    2.7240   -4.7740 hc        1 548      0.056700
     40 H19A       -2.8840    1.5810   -4.5460 hc        1 548      0.056700
     41 H19B       -1.8210    1.4400   -6.0160 hc        1 548      0.056700
@<TRIPOS>BOND
     1    1    5 1   
     2    1   28 1   
     3    1   29 1   
     4    1   30 1   
     5    2   26 1   
     6    3    8 ar  
     7    3   11 ar  
     8    4   22 1   
     9    5    8 ar  
    10    5   14 ar  
    11    6   26 1   
    12    7   15 2   
    13    7   16 1   
    14    8   31 1   
    15    9   26 1   
    16   10   15 1   
    17   10   17 1   
    18   10   18 1   
    19   11   13 ar  
    20   11   32 1   
    21   12   23 1   
    22   12   24 2   
    23   13   14 ar  
    24   13   33 1   
    25   14   15 1   
    26   16   17 2   
    27   16   27 1   
    28   17   24 1   
    29   18   19 ar  
    30   18   23 ar  
    31   19   20 ar  
    32   19   34 1   
    33   20   21 ar  
    34   20   26 1   
    35   21   22 ar  
    36   21   35 1   
    37   22   23 ar  
    38   24   25 1   
    39   25   36 1   
    40   25   37 1   
    41   25   38 1   
    42   27   39 1   
    43   27   40 1   
    44   27   41 1   
@<TRIPOS>SUBSTRUCTURE
     1 548         1 TEMP              0 ****  ****    0 ROOT
