@<TRIPOS>MOLECULE
549
   26    27     1     0     0
SMALL
bcc


@<TRIPOS>ATOM
      1 C10        -0.0160    0.0010    0.0510 c3        1 549      0.069000
      2 C01         5.1310   -0.0130    1.3080 ca        1 549     -0.153600
      3 C02         4.5730   -0.0030    0.0150 ca        1 549     -0.074000
      4 C03         3.2010    0.0010   -0.2010 ca        1 549     -0.184000
      5 C04         2.3740   -0.0060    0.9260 ca        1 549     -0.077200
      6 C05         2.9290   -0.0160    2.2690 ca        1 549      0.039400
      7 C06         4.3210   -0.0190    2.4380 ca        1 549     -0.046000
      8 N07         0.9760   -0.0040    1.0900 na        1 549     -0.189300
      9 C08         0.7470   -0.0140    2.4850 cc        1 549      0.383700
     10 N09         1.8720   -0.0210    3.2090 nd        1 549     -0.570100
     11 C11        -0.9100   -1.2430    0.0660 c3        1 549     -0.110100
     12 C12        -0.9120    1.2450    0.0820 c3        1 549     -0.110100
     13 O14         7.3410   -0.0090    0.3970 o         1 549     -0.831800
     14 O15         7.1320   -0.0260    2.6210 o         1 549     -0.831800
     15 H20         0.5500    0.0080   -0.9310 h1        1 549      0.066700
     16 H16         5.2750    0.0020   -0.8370 ha        1 549      0.156000
     17 H17         2.7850    0.0080   -1.2150 ha        1 549      0.109000
     18 H18         4.7830   -0.0270    3.4380 ha        1 549      0.166000
     19 H19        -0.2690   -0.0150    2.8900 h5        1 549      0.043800
     20 H23        -1.6100   -1.1970   -0.8010 hc        1 549      0.039033
     21 H21        -1.5080   -1.2920    1.0080 hc        1 549      0.039033
     22 H22        -0.2970   -2.1730   -0.0150 hc        1 549      0.039033
     23 H24        -0.3000    2.1760    0.0120 hc        1 549      0.039033
     24 H25        -1.5090    1.2810    1.0240 hc        1 549      0.039033
     25 H26        -1.6110    1.2080   -0.7860 hc        1 549      0.039033
     26 C13         6.6480   -0.0160    1.4550 c         1 549      0.910200
@<TRIPOS>BOND
     1    1    8 1   
     2    1   11 1   
     3    1   12 1   
     4    1   15 1   
     5    2    3 ar  
     6    2    7 ar  
     7    2   26 1   
     8    3    4 ar  
     9    3   16 1   
    10    4    5 ar  
    11    4   17 1   
    12    5    6 ar  
    13    5    8 1   
    14    6    7 ar  
    15    6   10 1   
    16    7   18 1   
    17    8    9 1   
    18    9   10 2   
    19    9   19 1   
    20   11   20 1   
    21   11   21 1   
    22   11   22 1   
    23   12   23 1   
    24   12   24 1   
    25   12   25 1   
    26   13   26 1   
    27   14   26 1   
@<TRIPOS>SUBSTRUCTURE
     1 549         1 TEMP              0 ****  ****    0 ROOT
