@<TRIPOS>MOLECULE
molecule
   26    27     1     0     0
SMALL
bcc


@<TRIPOS>ATOM
      1 C10          0.0000     0.0000     0.0000 c3         1 549       0.060000
      2 C01          5.1110     0.0000     1.2900 ca         1 549      -0.125600
      3 C02          4.5620     0.0000     0.0000 ca         1 549      -0.059000
      4 C03          3.2090     0.0000    -0.1760 ca         1 549      -0.182000
      5 C04          2.3610    -0.0010     0.9260 ca         1 549      -0.098200
      6 C05          2.8950    -0.0010     2.2280 ca         1 549       0.063400
      7 C06          4.2780    -0.0060     2.4040 ca         1 549      -0.052000
      8 N07          0.9910    -0.0010     1.0780 na         1 549      -0.166300
      9 C08          0.7300    -0.0010     2.4140 cc         1 549       0.386700
     10 N09          1.8420    -0.0010     3.0880 nd         1 549      -0.603100
     11 C11         -0.8760    -1.2500     0.1120 c3         1 549      -0.108100
     12 C12         -0.8760     1.2490     0.1130 c3         1 549      -0.108100
     13 O14          7.3830    -0.0000     0.3870 o          1 549      -0.838800
     14 O15          7.0530    -0.0010     2.5830 o          1 549      -0.838800
     15 H20          0.5070     0.0000    -0.9570 h1         1 549       0.072700
     16 H16          5.2160    -0.0000    -0.8630 ha         1 549       0.157000
     17 H17          2.7940     0.0000    -1.1770 ha         1 549       0.101000
     18 H18          4.6970    -0.1440     3.3940 ha         1 549       0.159000
     19 H19         -0.2610    -0.0010     2.8520 h5         1 549       0.050800
     20 H23         -1.4690    -1.3580    -0.7880 hc         1 549       0.040700
     21 H21         -1.5340    -1.1550     0.9680 hc         1 549       0.040700
     22 H22         -0.2460    -2.1230     0.2360 hc         1 549       0.040700
     23 H24         -1.4690     1.3570    -0.7870 hc         1 549       0.040700
     24 H25         -1.5340     1.1530     0.9690 hc         1 549       0.040700
     25 H26         -0.2470     2.1220     0.2380 hc         1 549       0.040700
     26 C13          6.5750    -0.0010     1.4650 c          1 549       0.886200
@<TRIPOS>BOND
     1    14    26 1   
     2    13    26 1   
     3    26     2 1   
     4     2     3 ar  
     5     2     7 ar  
     6     3     4 ar  
     7     7     6 ar  
     8     4     5 ar  
     9     6     5 ar  
    10     6    10 1   
    11     5     8 1   
    12    10     9 2   
    13    12     1 1   
    14     8     1 1   
    15     8     9 1   
    16    11     1 1   
    17     1    15 1   
    18     3    16 1   
    19     4    17 1   
    20     7    18 1   
    21     9    19 1   
    22    11    20 1   
    23    11    21 1   
    24    11    22 1   
    25    12    23 1   
    26    12    24 1   
    27    12    25 1   
@<TRIPOS>SUBSTRUCTURE
     1 549         1 TEMP              0 ****  ****    0 ROOT
