@<TRIPOS>MOLECULE
molecule
   68    73     1     0     0
SMALL
bcc


@<TRIPOS>ATOM
      1 FBL          0.0000     0.0000     0.0000 f          1 54B      -0.215633
      2 CBK          1.3990     0.0000     0.0000 c3         1 54B       0.603600
      3 FBM          1.8660     0.0000     1.3190 f          1 54B      -0.215633
      4 FBN          1.8650    -1.1430    -0.6600 f          1 54B      -0.215633
      5 CBJ          1.9020     1.2300    -0.7110 cc         1 54B       0.280600
      6 NBO          1.0910     2.1670    -1.1400 nc         1 54B      -0.648000
      7 CBI          3.2050     1.4370    -0.9390 cd         1 54B      -0.149400
      8 SBP          3.3780     2.9730    -1.7850 ss         1 54B      -0.147300
      9 CBH          1.6310     3.1890    -1.7410 cd         1 54B       0.535900
     10 CBF          0.8960     4.3450    -2.2940 ca         1 54B      -0.032500
     11 CBE         -0.5000     4.3630    -2.3170 ca         1 54B      -0.263300
     12 CAX         -1.1510     5.4700    -2.8460 ca         1 54B       0.579200
     13 NAY         -2.5440     5.4980    -2.8740 ns         1 54B      -0.562400
     14 CAZ         -3.1860     6.5150    -3.4820 c          1 54B       0.769100
     15 OBA         -2.5520     7.3570    -4.0890 o          1 54B      -0.588100
     16 NBB         -4.5290     6.5990    -3.4170 ns         1 54B      -0.604900
     17 CBC         -5.2270     7.7050    -4.0780 c3         1 54B       0.128000
     18 CBD         -6.7330     7.5650    -3.8540 c3         1 54B      -0.114100
     19 NAW         -0.4680     6.4990    -3.3260 nb         1 54B      -0.672000
     20 CAV          0.8500     6.5260    -3.3250 ca         1 54B       0.468200
     21 CAU          1.5850     5.4640    -2.8100 cp         1 54B      -0.195300
     22 CAT          3.0650     5.5040    -2.8070 cp         1 54B      -0.194300
     23 CAS          3.7780     5.4130    -4.0010 ca         1 54B      -0.015000
     24 CAL          5.1760     5.4550    -3.9430 ca         1 54B      -0.269200
     25 CAM          5.9780     5.3630    -5.1810 cc         1 54B       0.578200
     26 OAN          7.3270     5.3930    -5.2450 os         1 54B      -0.383700
     27 CAO          7.7040     5.2860    -6.5300 c          1 54B       0.793600
     28 OAP          8.8480     5.2780    -6.9450 o          1 54B      -0.593500
     29 NAQ          6.5830     5.1890    -7.2740 ns         1 54B      -0.347900
     30 NAR          5.4990     5.2350    -6.3850 nd         1 54B      -0.496300
     31 CAK          5.8010     5.5860    -2.7040 ca         1 54B       0.486200
     32 NAJ          5.0960     5.6680    -1.5940 nb         1 54B      -0.730000
     33 CAI          3.7730     5.6390    -1.6020 ca         1 54B       0.648200
     34 NAH          3.0770     5.7370    -0.4060 nh         1 54B      -0.683300
     35 CAC          4.0040     5.6670     0.7570 c3         1 54B       0.162500
     36 CAB          4.6660     7.0650     0.7920 c3         1 54B      -0.094400
     37 CAA          3.6400     8.0010     0.1190 c3         1 54B      -0.094400
     38 CAG          2.4560     7.0800    -0.2580 c3         1 54B       0.162500
     39 CAF          1.5160     7.0090     0.9570 c3         1 54B       0.169300
     40 NAE          2.3140     6.7450     2.1630 n3         1 54B      -0.734600
     41 CBG          1.4580     6.6620     3.3530 c3         1 54B       0.153100
     42 CAD          3.1330     5.5330     2.0170 c3         1 54B       0.169300
     43 H1           4.0120     0.7730    -0.6550 h4         1 54B       0.192000
     44 H4          -1.0580     3.4600    -2.1000 ha         1 54B       0.162000
     45 H5          -3.0680     4.7640    -2.4410 hn         1 54B       0.327500
     46 H6          -5.0510     5.8970    -2.9310 hn         1 54B       0.305500
     47 H7          -4.8860     8.6460    -3.6640 h1         1 54B       0.054700
     48 H8          -5.0160     7.6810    -5.1410 h1         1 54B       0.054700
     49 H9          -7.2480     8.3850    -4.3400 hc         1 54B       0.043367
     50 H10         -6.9430     7.5860    -2.7920 hc         1 54B       0.043367
     51 H11         -7.0750     6.6260    -4.2720 hc         1 54B       0.043367
     52 H12          1.3670     7.3890    -3.7260 h4         1 54B       0.037100
     53 H13          3.2820     5.0750    -4.9030 ha         1 54B       0.171000
     54 H14          6.5340     5.0950    -8.2690 hn         1 54B       0.399500
     55 H15          6.8830     5.6160    -2.6530 h4         1 54B       0.045100
     56 H16          4.7280     4.8670     0.6630 h1         1 54B       0.086700
     57 H17          5.5940     7.0580     0.2320 hc         1 54B       0.057700
     58 H18          4.8440     7.3730     1.8150 hc         1 54B       0.057700
     59 H19          4.0660     8.4520    -0.7690 hc         1 54B       0.057700
     60 H20          3.3160     8.7670     0.8140 hc         1 54B       0.057700
     61 H21          1.9490     7.4040    -1.1590 h1         1 54B       0.086700
     62 H22          0.9930     7.9520     1.0670 h1         1 54B       0.046450
     63 H23          0.7980     6.2110     0.8150 h1         1 54B       0.046450
     64 H25          0.8980     7.5840     3.4600 h1         1 54B       0.033700
     65 H26          0.7700     5.8320     3.2460 h1         1 54B       0.033700
     66 H27          2.0740     6.5100     4.2310 h1         1 54B       0.033700
     67 H28          3.7680     5.4170     2.8870 h1         1 54B       0.046450
     68 H29          2.4870     4.6680     1.9210 h1         1 54B       0.046450
@<TRIPOS>BOND
     1     1     2 1   
     2     2     3 1   
     3     2     4 1   
     4     2     5 1   
     5     5     6 1   
     6     5     7 2   
     7     6     9 2   
     8     7     8 1   
     9     8     9 1   
    10     9    10 1   
    11    10    11 ar  
    12    10    21 ar  
    13    11    12 ar  
    14    12    13 1   
    15    12    19 ar  
    16    13    14 1   
    17    14    15 2   
    18    14    16 1   
    19    16    17 1   
    20    17    18 1   
    21    19    20 ar  
    22    20    21 ar  
    23    21    22 1   
    24    22    23 ar  
    25    22    33 ar  
    26    23    24 ar  
    27    24    25 1   
    28    24    31 ar  
    29    25    26 1   
    30    25    30 2   
    31    26    27 1   
    32    27    28 2   
    33    27    29 1   
    34    29    30 1   
    35    31    32 ar  
    36    32    33 ar  
    37    33    34 1   
    38    34    35 1   
    39    34    38 1   
    40    35    36 1   
    41    35    42 1   
    42    36    37 1   
    43    37    38 1   
    44    38    39 1   
    45    39    40 1   
    46    40    41 1   
    47    40    42 1   
    48     7    43 1   
    49    11    44 1   
    50    13    45 1   
    51    16    46 1   
    52    17    47 1   
    53    17    48 1   
    54    18    49 1   
    55    18    50 1   
    56    18    51 1   
    57    20    52 1   
    58    23    53 1   
    59    29    54 1   
    60    31    55 1   
    61    35    56 1   
    62    36    57 1   
    63    36    58 1   
    64    37    59 1   
    65    37    60 1   
    66    38    61 1   
    67    39    62 1   
    68    39    63 1   
    69    41    64 1   
    70    41    65 1   
    71    41    66 1   
    72    42    67 1   
    73    42    68 1   
@<TRIPOS>SUBSTRUCTURE
     1 54B         1 TEMP              0 ****  ****    0 ROOT
