@<TRIPOS>MOLECULE
54B
   68    73     1     0     0
SMALL
bcc


@<TRIPOS>ATOM
      1 FBL          0.0000     0.0000     0.0000 f          1 54B      -0.203300
      2 CBK          1.3990     0.0000     0.0000 c3         1 54B       0.558600
      3 FBM          1.8660     0.0000     1.3190 f          1 54B      -0.203300
      4 FBN          1.8650    -1.1430    -0.6600 f          1 54B      -0.203300
      5 CBJ          1.9020     1.2300    -0.7110 cc         1 54B       0.215600
      6 NBO          1.0910     2.1670    -1.1400 nc         1 54B      -0.516000
      7 CBI          3.2050     1.4370    -0.9390 cd         1 54B      -0.049400
      8 SBP          3.3780     2.9730    -1.7850 ss         1 54B      -0.283300
      9 CBH          1.6310     3.1890    -1.7410 cd         1 54B       0.538900
     10 CBF          0.8960     4.3450    -2.2940 ca         1 54B      -0.046500
     11 CBE         -0.5000     4.3630    -2.3170 ca         1 54B      -0.241300
     12 CAX         -1.1510     5.4700    -2.8460 ca         1 54B       0.383200
     13 NAY         -2.5440     5.4980    -2.8740 ns         1 54B      -0.128400
     14 CAZ         -3.1860     6.5150    -3.4820 c          1 54B       0.551100
     15 OBA         -2.5520     7.3570    -4.0890 o          1 54B      -0.637100
     16 NBB         -4.5290     6.5990    -3.4170 ns         1 54B      -0.223900
     17 CBC         -5.2270     7.7050    -4.0780 c3         1 54B       0.067000
     18 CBD         -6.7330     7.5650    -3.8540 c3         1 54B      -0.008100
     19 NAW         -0.4680     6.4990    -3.3260 nb         1 54B      -0.540000
     20 CAV          0.8500     6.5260    -3.3250 ca         1 54B       0.441200
     21 CAU          1.5850     5.4640    -2.8100 cp         1 54B      -0.177300
     22 CAT          3.0650     5.5040    -2.8070 cp         1 54B      -0.185300
     23 CAS          3.7780     5.4130    -4.0010 ca         1 54B       0.017000
     24 CAL          5.1760     5.4550    -3.9430 ca         1 54B      -0.274200
     25 CAM          5.9780     5.3630    -5.1810 cc         1 54B       0.614200
     26 OAN          7.3270     5.3930    -5.2450 os         1 54B      -0.365700
     27 CAO          7.7040     5.2860    -6.5300 c          1 54B       0.721600
     28 OAP          8.8480     5.2780    -6.9450 o          1 54B      -0.649500
     29 NAQ          6.5830     5.1890    -7.2740 ns         1 54B       0.050100
     30 NAR          5.4990     5.2350    -6.3850 nd         1 54B      -0.620300
     31 CAK          5.8010     5.5860    -2.7040 ca         1 54B       0.470200
     32 NAJ          5.0960     5.6680    -1.5940 nb         1 54B      -0.620000
     33 CAI          3.7730     5.6390    -1.6020 ca         1 54B       0.551200
     34 NAH          3.0770     5.7370    -0.4060 nh         1 54B      -0.497300
     35 CAC          4.0040     5.6670     0.7570 c3         1 54B       0.123000
     36 CAB          4.6660     7.0650     0.7920 c3         1 54B      -0.045900
     37 CAA          3.6400     8.0010     0.1190 c3         1 54B      -0.045900
     38 CAG          2.4560     7.0800    -0.2580 c3         1 54B       0.123000
     39 CAF          1.5160     7.0090     0.9570 c3         1 54B       0.155800
     40 NAE          2.3140     6.7450     2.1630 n3         1 54B      -0.544600
     41 CBG          1.4580     6.6620     3.3530 c3         1 54B       0.187100
     42 CAD          3.1330     5.5330     2.0170 c3         1 54B       0.155800
     43 H1           4.0120     0.7730    -0.6550 h4         1 54B       0.168000
     44 H4          -1.0580     3.4600    -2.1000 ha         1 54B       0.137000
     45 H5          -3.0680     4.7640    -2.4410 hn         1 54B       0.166500
     46 H6          -5.0510     5.8970    -2.9310 hn         1 54B       0.166500
     47 H7          -4.8860     8.6460    -3.6640 h1         1 54B       0.025700
     48 H8          -5.0160     7.6810    -5.1410 h1         1 54B       0.025700
     49 H9          -7.2480     8.3850    -4.3400 hc         1 54B       0.008033
     50 H10         -6.9430     7.5860    -2.7920 hc         1 54B       0.008033
     51 H11         -7.0750     6.6260    -4.2720 hc         1 54B       0.008033
     52 H12          1.3670     7.3890    -3.7260 h4         1 54B      -0.009900
     53 H13          3.2820     5.0750    -4.9030 ha         1 54B       0.137000
     54 H14          6.5340     5.0950    -8.2690 hn         1 54B       0.234500
     55 H15          6.8830     5.6160    -2.6530 h4         1 54B      -0.005900
     56 H16          4.7280     4.8670     0.6630 h1         1 54B       0.058700
     57 H17          5.5940     7.0580     0.2320 hc         1 54B       0.031450
     58 H18          4.8440     7.3730     1.8150 hc         1 54B       0.031450
     59 H19          4.0660     8.4520    -0.7690 hc         1 54B       0.031450
     60 H20          3.3160     8.7670     0.8140 hc         1 54B       0.031450
     61 H21          1.9490     7.4040    -1.1590 h1         1 54B       0.058700
     62 H22          0.9930     7.9520     1.0670 h1         1 54B       0.017450
     63 H23          0.7980     6.2110     0.8150 h1         1 54B       0.017450
     64 H25          0.8980     7.5840     3.4600 h1         1 54B       0.001367
     65 H26          0.7700     5.8320     3.2460 h1         1 54B       0.001367
     66 H27          2.0740     6.5100     4.2310 h1         1 54B       0.001367
     67 H28          3.7680     5.4170     2.8870 h1         1 54B       0.017450
     68 H29          2.4870     4.6680     1.9210 h1         1 54B       0.017450
@<TRIPOS>BOND
     1     1     2 1   
     2     2     3 1   
     3     2     4 1   
     4     2     5 1   
     5     5     6 1   
     6     5     7 2   
     7     6     9 2   
     8     7     8 1   
     9     7    43 1   
    10     8     9 1   
    11     9    10 1   
    12    10    11 ar  
    13    10    21 ar  
    14    11    12 ar  
    15    11    44 1   
    16    12    13 1   
    17    12    19 ar  
    18    13    14 1   
    19    13    45 1   
    20    14    15 2   
    21    14    16 1   
    22    16    17 1   
    23    16    46 1   
    24    17    18 1   
    25    17    47 1   
    26    17    48 1   
    27    18    49 1   
    28    18    50 1   
    29    18    51 1   
    30    19    20 ar  
    31    20    21 ar  
    32    20    52 1   
    33    21    22 1   
    34    22    23 ar  
    35    22    33 ar  
    36    23    24 ar  
    37    23    53 1   
    38    24    25 1   
    39    24    31 ar  
    40    25    26 1   
    41    25    30 2   
    42    26    27 1   
    43    27    28 2   
    44    27    29 1   
    45    29    30 1   
    46    29    54 1   
    47    31    32 ar  
    48    31    55 1   
    49    32    33 ar  
    50    33    34 1   
    51    34    35 1   
    52    34    38 1   
    53    35    36 1   
    54    35    42 1   
    55    35    56 1   
    56    36    37 1   
    57    36    57 1   
    58    36    58 1   
    59    37    38 1   
    60    37    59 1   
    61    37    60 1   
    62    38    39 1   
    63    38    61 1   
    64    39    40 1   
    65    39    62 1   
    66    39    63 1   
    67    40    41 1   
    68    40    42 1   
    69    41    64 1   
    70    41    65 1   
    71    41    66 1   
    72    42    67 1   
    73    42    68 1   
@<TRIPOS>SUBSTRUCTURE
     1 54B         1 TEMP              0 ****  ****    0 ROOT
