@<TRIPOS>MOLECULE
54C
   42    44     1     0     0
SMALL
bcc


@<TRIPOS>ATOM
      1 CA           1.5300     0.0000     0.0000 c3         1 54C      -0.232500
      2 CB           0.0000     0.0000     0.0000 c3         1 54C       0.263300
      3 CG          -0.5030    -1.1630     0.8150 cc         1 54C      -0.249400
      4 N            2.0190     0.0000     1.3850 nz         1 54C       0.037400
      5 C            2.0320     1.2290    -0.7110 c          1 54C       0.961600
      6 O            2.0660     1.2620    -2.0530 o          1 54C      -0.816800
      7 CD1         -0.8580    -1.1360     2.1100 cd         1 54C      -0.250100
      8 NE2         -1.2630    -2.3820     2.5080 na         1 54C       0.412600
      9 C1          -1.7180    -2.7270     3.8580 c3         1 54C      -0.062300
     10 C2          -3.1520    -3.2560     3.7930 c3         1 54C      -0.019600
     11 C3          -0.8030    -3.8040     4.4430 c3         1 54C      -0.019600
     12 CE2         -1.1770    -3.2620     1.4530 ca         1 54C      -0.204200
     13 CD2         -0.7020    -2.5360     0.3450 ca         1 54C      -0.093800
     14 CE3         -0.5130    -3.1790    -0.8790 ca         1 54C      -0.050000
     15 CZ3         -0.7910    -4.5120    -0.9970 ca         1 54C      -0.116000
     16 C70         -1.2600    -5.2320     0.0940 ca         1 54C      -0.076000
     17 CH2         -1.4580    -4.6170     1.3110 ca         1 54C      -0.110000
     18 OB          -0.4770     1.2210     0.5680 oh         1 54C      -0.548800
     19 C4          -1.6730    -1.4810     4.7450 cx         1 54C       0.059100
     20 C5          -2.1410    -1.6230     6.1940 cx         1 54C       0.145400
     21 O6          -2.9150    -0.9440     5.2010 op         1 54C      -0.369600
     22 H1           1.8900    -0.8850    -0.5100 hx         1 54C       0.087700
     23 H2           0.0920    -0.5710    -0.9160 h1         1 54C       0.091700
     24 H3           1.2170     0.1200     1.9700 hn         1 54C       0.218800
     25 H4           2.4670    -0.8710     1.5910 hn         1 54C       0.218800
     26 H9          -0.8310    -0.2580     2.7440 h4         1 54C       0.157000
     27 H10         -3.5090    -3.4550     4.7960 hc         1 54C       0.024200
     28 H11         -3.1730    -4.1720     3.2150 hc         1 54C       0.024200
     29 H12         -3.7890    -2.5170     3.3230 hc         1 54C       0.024200
     30 H13          0.0930    -3.8840     3.8390 hc         1 54C       0.024200
     31 H14         -0.5320    -3.5360     5.4570 hc         1 54C       0.024200
     32 H15         -1.3210    -4.7550     4.4470 hc         1 54C       0.024200
     33 H16         -0.1480    -2.6230    -1.7340 ha         1 54C       0.113000
     34 H17         -0.6410    -5.0110    -1.9460 ha         1 54C       0.110000
     35 H18         -1.4760    -6.2880    -0.0140 ha         1 54C       0.105000
     36 H19         -1.8240    -5.1880     2.1560 ha         1 54C       0.109000
     37 H20         -1.0350     1.6600    -0.0530 ho         1 54C       0.423000
     38 H21         -0.8900    -0.7490     4.5880 h1         1 54C       0.064700
     39 H22         -2.4990    -2.6040     6.4800 h1         1 54C       0.046200
     40 H23         -1.6400    -0.9870     6.9140 h1         1 54C       0.046200
     41 OXT          2.4050     2.1860    -0.0740 o          1 54C      -0.816800
     42 HN3          2.6600     0.7560     1.5230 hn         1 54C       0.218800
@<TRIPOS>BOND
     1     1     2 1   
     2     1     4 1   
     3     1     5 1   
     4     1    22 1   
     5     2     3 1   
     6     2    18 1   
     7     2    23 1   
     8     3     7 2   
     9     3    13 1   
    10     4    24 1   
    11     4    25 1   
    12     4    42 1   
    13     5     6 1   
    14     5    41 1   
    15     7     8 1   
    16     7    26 1   
    17     8     9 1   
    18     8    12 1   
    19     9    10 1   
    20     9    11 1   
    21     9    19 1   
    22    10    27 1   
    23    10    28 1   
    24    10    29 1   
    25    11    30 1   
    26    11    31 1   
    27    11    32 1   
    28    12    13 ar  
    29    12    17 ar  
    30    13    14 ar  
    31    14    15 ar  
    32    14    33 1   
    33    15    16 ar  
    34    15    34 1   
    35    16    17 ar  
    36    16    35 1   
    37    17    36 1   
    38    18    37 1   
    39    19    20 1   
    40    19    21 1   
    41    19    38 1   
    42    20    21 1   
    43    20    39 1   
    44    20    40 1   
@<TRIPOS>SUBSTRUCTURE
     1 54C         1 TEMP              0 ****  ****    0 ROOT
