@<TRIPOS>MOLECULE
molecule
   42    44     1     0     0
SMALL
bcc


@<TRIPOS>ATOM
      1 CA           1.5300     0.0000     0.0000 c3         1 54C      -0.039500
      2 CB           0.0000     0.0000     0.0000 c3         1 54C       0.194300
      3 CG          -0.5030    -1.1630     0.8150 cc         1 54C      -0.233400
      4 N            2.0190     0.0000     1.3850 nz         1 54C      -0.800600
      5 C            2.0320     1.2290    -0.7110 c          1 54C       0.871600
      6 O            2.0660     1.2620    -2.0530 o          1 54C      -0.775800
      7 CD1         -0.8580    -1.1360     2.1100 cd         1 54C      -0.094100
      8 NE2         -1.2630    -2.3820     2.5080 na         1 54C      -0.061400
      9 C1          -1.7180    -2.7270     3.8580 c3         1 54C       0.079700
     10 C2          -3.1520    -3.2560     3.7930 c3         1 54C      -0.102600
     11 C3          -0.8030    -3.8040     4.4430 c3         1 54C      -0.102600
     12 CE2         -1.1770    -3.2620     1.4530 ca         1 54C      -0.031200
     13 CD2         -0.7020    -2.5360     0.3450 ca         1 54C      -0.103800
     14 CE3         -0.5130    -3.1790    -0.8790 ca         1 54C      -0.084000
     15 CZ3         -0.7910    -4.5120    -0.9970 ca         1 54C      -0.145000
     16 C70         -1.2600    -5.2320     0.0940 ca         1 54C      -0.103000
     17 CH2         -1.4580    -4.6170     1.3110 ca         1 54C      -0.143000
     18 OB          -0.4770     1.2210     0.5680 oh         1 54C      -0.563800
     19 C4          -1.6730    -1.4810     4.7450 cx         1 54C       0.021100
     20 C5          -2.1410    -1.6230     6.1940 cx         1 54C       0.054400
     21 O6          -2.9150    -0.9440     5.2010 op         1 54C      -0.363600
     22 H1           1.8900    -0.8850    -0.5100 hx         1 54C       0.101700
     23 H2           0.0920    -0.5710    -0.9160 h1         1 54C       0.130700
     24 H3           1.2170     0.1200     1.9700 hn         1 54C       0.440133
     25 H4           2.4670    -0.8710     1.5910 hn         1 54C       0.440133
     26 H9          -0.8310    -0.2580     2.7440 h4         1 54C       0.175000
     27 H10         -3.5090    -3.4550     4.7960 hc         1 54C       0.054700
     28 H11         -3.1730    -4.1720     3.2150 hc         1 54C       0.054700
     29 H12         -3.7890    -2.5170     3.3230 hc         1 54C       0.054700
     30 H13          0.0930    -3.8840     3.8390 hc         1 54C       0.054700
     31 H14         -0.5320    -3.5360     5.4570 hc         1 54C       0.054700
     32 H15         -1.3210    -4.7550     4.4470 hc         1 54C       0.054700
     33 H16         -0.1480    -2.6230    -1.7340 ha         1 54C       0.140000
     34 H17         -0.6410    -5.0110    -1.9460 ha         1 54C       0.138000
     35 H18         -1.4760    -6.2880    -0.0140 ha         1 54C       0.135000
     36 H19         -1.8240    -5.1880     2.1560 ha         1 54C       0.130000
     37 H20         -1.0350     1.6600    -0.0530 ho         1 54C       0.435000
     38 H21         -0.8900    -0.7490     4.5880 h1         1 54C       0.092700
     39 H22         -2.4990    -2.6040     6.4800 h1         1 54C       0.088200
     40 H23         -1.6400    -0.9870     6.9140 h1         1 54C       0.088200
     41 OXT          2.4050     2.1860    -0.0740 o          1 54C      -0.775800
     42 HN3          2.6600     0.7560     1.5230 hn         1 54C       0.440133
@<TRIPOS>BOND
     1    21    20 1
     2    21    19 1
     3    20    19 1
     4    19     9 1
     5    11     9 1
     6     9    10 1
     7     9     8 1
     8     8    12 1
     9     8     7 1
    10    17    12 ar
    11    17    16 ar
    12    12    13 ar
    13     7     3 2
    14    16    15 ar
    15    13     3 1
    16    13    14 ar
    17     3     2 1
    18    15    14 ar
    19    18     2 1
    20     2     1 1
    21     1     5 1
    22     1     4 1
    23     5     6 1
    24     1    22 1
    25     2    23 1
    26     4    24 1
    27     4    25 1
    28     7    26 1
    29    10    27 1
    30    10    28 1
    31    10    29 1
    32    11    30 1
    33    11    31 1
    34    11    32 1
    35    14    33 1
    36    15    34 1
    37    16    35 1
    38    17    36 1
    39    18    37 1
    40    19    38 1
    41    20    39 1
    42    20    40 1
    43     5    41 1
    44    42     4 1
@<TRIPOS>SUBSTRUCTURE
     1 54C         1 TEMP              0 ****  ****    0 ROOT
