@<TRIPOS>MOLECULE
molecule
   15    15     1     0     0
SMALL
bcc


@<TRIPOS>ATOM
      1 O8           0.0000     0.0000     0.0000 o          1 54D      -0.543000
      2 C6           1.2160     0.0000     0.0000 c          1 54D       0.679700
      3 O7           1.8910     0.0000     1.1680 os         1 54D      -0.430900
      4 C9           1.1000     0.0000     2.3860 c3         1 54D       0.142700
      5 C2           1.9480    -0.0060    -1.2680 cc         1 54D      -0.113700
      6 S3           3.6980    -0.0080    -1.4350 ss         1 54D      -0.033800
      7 C4           3.5820    -0.0160    -3.1380 cc         1 54D      -0.097100
      8 C5           2.3020    -0.0170    -3.5310 cd         1 54D      -0.177000
      9 C1           1.3800    -0.0180    -2.5120 cd         1 54D      -0.075000
     10 H9           1.7600     0.0000     3.2450 h1         1 54D       0.050367
     11 H9A          0.4750    -0.8840     2.4110 h1         1 54D       0.050367
     12 H9B          0.4750     0.8850     2.4110 h1         1 54D       0.050367
     13 H4           4.4310    -0.0170    -3.8110 h4         1 54D       0.174000
     14 H5           2.0150    -0.0230    -4.5750 ha         1 54D       0.153000
     15 H1           0.3090    -0.0190    -2.6780 ha         1 54D       0.170000
@<TRIPOS>BOND
     1     1     2 2
     2     2     3 1
     3     2     5 1
     4     3     4 1
     5     5     6 1
     6     5     9 2
     7     6     7 1
     8     7     8 2
     9     8     9 1
    10     4    10 1
    11     4    11 1
    12     4    12 1
    13     7    13 1
    14     8    14 1
    15     9    15 1
@<TRIPOS>SUBSTRUCTURE
     1 54D         1 TEMP              0 ****  ****    0 ROOT
