@<TRIPOS>MOLECULE
54D
   15    15     1     0     0
SMALL
bcc


@<TRIPOS>ATOM
      1 O8         -0.0970   -0.0150    0.0710 o         1 54D     -0.537000
      2 C6          1.1320   -0.0090   -0.0460 c         1 54D      0.679700
      3 O7          1.8790    0.0010    1.1080 os        1 54D     -0.446900
      4 C9          1.1500    0.0020    2.3350 c3        1 54D      0.130700
      5 C2          1.9160   -0.0100   -1.2650 cc        1 54D     -0.199700
      6 S3          3.5890   -0.0020   -1.3790 ss        1 54D      0.141200
      7 C4          3.5890   -0.0090   -3.0330 cc        1 54D     -0.176100
      8 C5          2.3080   -0.0170   -3.5580 cd        1 54D     -0.173000
      9 C1          1.3280   -0.0180   -2.5270 cd        1 54D     -0.084000
     10 H9          0.5080    0.9130    2.3960 h1        1 54D      0.051700
     11 H9A         1.9500    0.0100    3.1160 h1        1 54D      0.051700
     12 H9B         0.5180   -0.9160    2.4040 h1        1 54D      0.051700
     13 H4          4.5030   -0.0070   -3.6270 h4        1 54D      0.176000
     14 H5          2.0630   -0.0230   -4.6220 ha        1 54D      0.160000
     15 H1          0.2480   -0.0240   -2.7000 ha        1 54D      0.173000
@<TRIPOS>BOND
     1    1    2 2   
     2    2    3 1   
     3    2    5 1   
     4    3    4 1   
     5    4   10 1   
     6    4   11 1   
     7    4   12 1   
     8    5    6 1   
     9    5    9 2   
    10    6    7 1   
    11    7    8 2   
    12    7   13 1   
    13    8    9 1   
    14    8   14 1   
    15    9   15 1   
@<TRIPOS>SUBSTRUCTURE
     1 54D         1 TEMP              0 ****  ****    0 ROOT
