@<TRIPOS>MOLECULE
54E
   28    29     1     0     0
SMALL
bcc


@<TRIPOS>ATOM
      1 Cl           0.0000     0.0000     0.0000 cl         1 54E       0.052600
      2 C3           1.7360     0.0000     0.0000 ca         1 54E      -0.047600
      3 C2           2.4280     0.0000     1.1960 ca         1 54E      -0.067000
      4 C4           2.4350    -0.0050    -1.2060 cp         1 54E       0.055000
      5 C5           3.8280    -0.0100    -1.1990 ca         1 54E      -0.071000
      6 C6           4.5080    -0.0100     0.0020 ca         1 54E      -0.068000
      7 C1           3.8110     0.0000     1.1960 ca         1 54E      -0.220300
      8 C            4.5610     0.0000     2.5040 c3         1 54E       0.042100
      9 N            4.8150     1.3860     2.9220 nz         1 54E       0.071400
     10 C7           1.6970    -0.0040    -2.4940 cp         1 54E      -0.077000
     11 C12          0.6700    -0.9210    -2.7120 ca         1 54E      -0.084000
     12 C11         -0.0160    -0.9120    -3.9100 ca         1 54E      -0.098000
     13 C10          0.3140     0.0030    -4.8930 ca         1 54E      -0.069000
     14 C9           1.3320     0.9140    -4.6820 ca         1 54E      -0.098000
     15 C8           2.0240     0.9160    -3.4880 ca         1 54E      -0.084000
     16 H1           1.8870    -0.0070     2.1340 ha         1 54E       0.117000
     17 H2           4.3740    -0.0810    -2.1310 ha         1 54E       0.136000
     18 H3           5.5920    -0.0250     0.0090 ha         1 54E       0.108000
     19 H4           3.9690    -0.5020     3.2590 hx         1 54E       0.081700
     20 H5           5.5040    -0.5180     2.3790 hx         1 54E       0.081700
     21 H6           5.1420     1.3940     3.8670 hn         1 54E       0.223133
     22 H7           3.9670     1.9150     2.8570 hn         1 54E       0.223133
     23 H9           0.4590    -1.6830    -1.9720 ha         1 54E       0.113500
     24 H10         -0.8150    -1.6250    -4.0800 ha         1 54E       0.114500
     25 H11         -0.2280     0.0060    -5.8310 ha         1 54E       0.113000
     26 H12          1.5880     1.6280    -5.4560 ha         1 54E       0.114500
     27 H13          2.6350     1.8110    -3.4700 ha         1 54E       0.113500
     28 HN3          5.5150     1.7900     2.3310 hn         1 54E       0.223133
@<TRIPOS>BOND
     1     1     2 1   
     2     2     3 ar  
     3     2     4 ar  
     4     3     7 ar  
     5     3    16 1   
     6     4     5 ar  
     7     4    10 1   
     8     5     6 ar  
     9     5    17 1   
    10     6     7 ar  
    11     6    18 1   
    12     7     8 1   
    13     8     9 1   
    14     8    19 1   
    15     8    20 1   
    16     9    21 1   
    17     9    22 1   
    18     9    28 1   
    19    10    11 ar  
    20    10    15 ar  
    21    11    12 ar  
    22    11    23 1   
    23    12    13 ar  
    24    12    24 1   
    25    13    14 ar  
    26    13    25 1   
    27    14    15 ar  
    28    14    26 1   
    29    15    27 1   
@<TRIPOS>SUBSTRUCTURE
     1 54E         1 TEMP              0 ****  ****    0 ROOT
