@<TRIPOS>MOLECULE
molecule
   28    29     1     0     0
SMALL
bcc


@<TRIPOS>ATOM
      1 Cl           0.0000     0.0000     0.0000 cl         1 54E      -0.047400
      2 C3           1.7360     0.0000     0.0000 ca         1 54E       0.029400
      3 C2           2.4280     0.0000     1.1960 ca         1 54E      -0.096000
      4 C4           2.4350    -0.0050    -1.2060 cp         1 54E       0.045000
      5 C5           3.8280    -0.0100    -1.1990 ca         1 54E      -0.101000
      6 C6           4.5080    -0.0100     0.0020 ca         1 54E      -0.100000
      7 C1           3.8110     0.0000     1.1960 ca         1 54E      -0.202300
      8 C            4.5610     0.0000     2.5040 c3         1 54E       0.163100
      9 N            4.8150     1.3860     2.9220 nz         1 54E      -0.811600
     10 C7           1.6970    -0.0040    -2.4940 cp         1 54E      -0.078000
     11 C12          0.6700    -0.9210    -2.7120 ca         1 54E      -0.102000
     12 C11         -0.0160    -0.9120    -3.9100 ca         1 54E      -0.129500
     13 C10          0.3140     0.0030    -4.8930 ca         1 54E      -0.097000
     14 C9           1.3320     0.9140    -4.6820 ca         1 54E      -0.129500
     15 C8           2.0240     0.9160    -3.4880 ca         1 54E      -0.102000
     16 H1           1.8870    -0.0070     2.1340 ha         1 54E       0.147000
     17 H2           4.3740    -0.0810    -2.1310 ha         1 54E       0.170000
     18 H3           5.5920    -0.0250     0.0090 ha         1 54E       0.138000
     19 H4           3.9690    -0.5020     3.2590 hx         1 54E       0.112700
     20 H5           5.5040    -0.5180     2.3790 hx         1 54E       0.112700
     21 H6           5.1420     1.3940     3.8670 hn         1 54E       0.454800
     22 H7           3.9670     1.9150     2.8570 hn         1 54E       0.454800
     23 H9           0.4590    -1.6830    -1.9720 ha         1 54E       0.141000
     24 H10         -0.8150    -1.6250    -4.0800 ha         1 54E       0.144500
     25 H11         -0.2280     0.0060    -5.8310 ha         1 54E       0.144000
     26 H12          1.5880     1.6280    -5.4560 ha         1 54E       0.144500
     27 H13          2.6350     1.8110    -3.4700 ha         1 54E       0.141000
     28 HN3          5.5150     1.7900     2.3310 hn         1 54E       0.454800
@<TRIPOS>BOND
     1     5     6 ar
     2     5     4 ar
     3     6     7 ar
     4    12    11 ar
     5    12    13 ar
     6    11    10 ar
     7    13    14 ar
     8    10    15 ar
     9    10     4 1
    10    14    15 ar
    11     4     2 ar
    12     7     8 1
    13     7     3 ar
    14     8     9 1
    15     2     3 ar
    16     2     1 1
    17     3    16 1
    18     5    17 1
    19     6    18 1
    20     8    19 1
    21     8    20 1
    22     9    21 1
    23     9    22 1
    24    11    23 1
    25    12    24 1
    26    13    25 1
    27    14    26 1
    28    15    27 1
    29    28     9 1
@<TRIPOS>SUBSTRUCTURE
     1 54E         1 TEMP              0 ****  ****    0 ROOT
