@<TRIPOS>MOLECULE
54F
   24    25     1     0     0
SMALL
bcc


@<TRIPOS>ATOM
      1 N1           0.0000     0.0000     0.0000 nb         1 54F      -0.648000
      2 C2           1.3230     0.0000     0.0000 ca         1 54F       0.618600
      3 C3           2.0310     0.0000     1.1950 ca         1 54F      -0.249300
      4 C4           1.3330     0.0010     2.3900 ca         1 54F      -0.032000
      5 C5          -0.0540     0.0020     2.3470 ca         1 54F      -0.267300
      6 C6          -0.6920     0.0010     1.1230 ca         1 54F       0.445200
      7 C9          -0.1480     0.8920    -3.9850 ca         1 54F       0.042600
      8 C10          0.5880     0.9990    -2.8140 ca         1 54F      -0.118000
      9 C11          1.2720    -0.1030    -2.3260 ca         1 54F       0.120100
     10 C12          1.2180    -1.3100    -3.0070 ca         1 54F      -0.114000
     11 C13          0.4840    -1.4150    -4.1740 ca         1 54F      -0.085000
     12 C14         -0.2020    -0.3200    -4.6610 ca         1 54F      -0.118000
     13 OAK          1.9940    -0.0020    -1.1790 os         1 54F      -0.344400
     14 H3           3.1140    -0.0000     1.1920 ha         1 54F       0.125000
     15 H4           1.8570     0.0010     3.3380 ha         1 54F       0.108000
     16 H5          -0.6300     0.0020     3.2650 ha         1 54F       0.116000
     17 H6          -1.7750     0.0020     1.0840 h4         1 54F      -0.021900
     18 HN8         -1.7830     2.1720    -4.1940 hn         1 54F       0.273300
     19 HN8A        -0.3870     2.6290    -5.1160 hn         1 54F       0.273300
     20 H10          0.6290     1.9430    -2.2830 ha         1 54F       0.118000
     21 H12          1.7540    -2.1710    -2.6270 ha         1 54F       0.111000
     22 H13          0.4420    -2.3590    -4.7030 ha         1 54F       0.102000
     23 H14         -0.7770    -0.4050    -5.5750 ha         1 54F       0.108000
     24 N8          -0.8390     2.0010    -4.4810 nv         1 54F      -0.561200
@<TRIPOS>BOND
     1     1     2 ar  
     2     1     6 ar  
     3     2     3 ar  
     4     2    13 1   
     5     3     4 ar  
     6     3    14 1   
     7     4     5 ar  
     8     4    15 1   
     9     5     6 ar  
    10     5    16 1   
    11     6    17 1   
    12     7     8 ar  
    13     7    12 ar  
    14     7    24 1   
    15     8     9 ar  
    16     8    20 1   
    17     9    10 ar  
    18     9    13 1   
    19    10    11 ar  
    20    10    21 1   
    21    11    12 ar  
    22    11    22 1   
    23    12    23 1   
    24    18    24 1   
    25    19    24 1   
@<TRIPOS>SUBSTRUCTURE
     1 54F         1 TEMP              0 ****  ****    0 ROOT
