@<TRIPOS>MOLECULE
molecule
   24    25     1     0     0
SMALL
bcc


@<TRIPOS>ATOM
      1 N1           0.0000     0.0000     0.0000 nb         1 54F      -0.755000
      2 C2           1.3230     0.0000     0.0000 ca         1 54F       0.654600
      3 C3           2.0310     0.0000     1.1950 ca         1 54F      -0.266300
      4 C4           1.3330     0.0010     2.3900 ca         1 54F      -0.064000
      5 C5          -0.0540     0.0020     2.3470 ca         1 54F      -0.294300
      6 C6          -0.6920     0.0010     1.1230 ca         1 54F       0.459200
      7 C9          -0.1480     0.8920    -3.9850 ca         1 54F       0.171600
      8 C10          0.5880     0.9990    -2.8140 ca         1 54F      -0.137000
      9 C11          1.2720    -0.1030    -2.3260 ca         1 54F       0.114100
     10 C12          1.2180    -1.3100    -3.0070 ca         1 54F      -0.134000
     11 C13          0.4840    -1.4150    -4.1740 ca         1 54F      -0.119000
     12 C14         -0.2020    -0.3200    -4.6610 ca         1 54F      -0.143000
     13 OAK          1.9940    -0.0020    -1.1790 os         1 54F      -0.361400
     14 H3           3.1140    -0.0000     1.1920 ha         1 54F       0.151000
     15 H4           1.8570     0.0010     3.3380 ha         1 54F       0.142000
     16 H5          -0.6300     0.0020     3.2650 ha         1 54F       0.139000
     17 H6          -1.7750     0.0020     1.0840 h4         1 54F       0.024100
     18 HN8         -1.7830     2.1720    -4.1940 hn         1 54F       0.428300
     19 HN8A        -0.3870     2.6290    -5.1160 hn         1 54F       0.428300
     20 H10          0.6290     1.9430    -2.2830 ha         1 54F       0.146000
     21 H12          1.7540    -2.1710    -2.6270 ha         1 54F       0.139000
     22 H13          0.4420    -2.3590    -4.7030 ha         1 54F       0.133000
     23 H14         -0.7770    -0.4050    -5.5750 ha         1 54F       0.136000
     24 N8          -0.8390     2.0010    -4.4810 nv         1 54F      -0.990200
@<TRIPOS>BOND
     1     1     2 ar  
     2     1     6 ar  
     3     2     3 ar  
     4     2    13 1   
     5     3     4 ar  
     6     4     5 ar  
     7     5     6 ar  
     8    24     7 1   
     9     7     8 ar  
    10     7    12 ar  
    11     8     9 ar  
    12     9    10 ar  
    13     9    13 1   
    14    10    11 ar  
    15    11    12 ar  
    16     3    14 1   
    17     4    15 1   
    18     5    16 1   
    19     6    17 1   
    20    24    18 1   
    21    24    19 1   
    22     8    20 1   
    23    10    21 1   
    24    11    22 1   
    25    12    23 1   
@<TRIPOS>SUBSTRUCTURE
     1 54F         1 TEMP              0 ****  ****    0 ROOT
