@<TRIPOS>MOLECULE
molecule
   18    18     1     0     0
SMALL
bcc


@<TRIPOS>ATOM
      1 C2           0.0000     0.0000     0.0000 ca         1 54G      -0.130000
      2 C7          -0.0270     0.0120     2.3970 ca         1 54G      -0.073000
      3 C6           2.0980     0.0260     3.6920 c          1 54G       0.881200
      4 C5           1.3710     0.0120     2.4110 ca         1 54G      -0.115600
      5 C4           2.0760     0.0000     1.1990 ca         1 54G       0.131100
      6 C3           1.3800     0.0000     0.0000 ca         1 54G      -0.222000
      7 O1           1.4170     0.0380     4.8540 o          1 54G      -0.830800
      8 O2           3.3140     0.0260     3.7010 o          1 54G      -0.830800
      9 O            3.4320     0.0000     1.2000 oh         1 54G      -0.470100
     10 C1          -0.7020     0.0060     1.1950 ca         1 54G      -0.142300
     11 C           -2.2080     0.0060     1.1820 c3         1 54G      -0.035800
     12 H1          -0.5380    -0.0020    -0.9400 ha         1 54G       0.102000
     13 H2          -0.5790     0.0170     3.3290 ha         1 54G       0.158000
     14 H3           1.9210    -0.0070    -0.9390 ha         1 54G       0.107000
     15 H5           3.7470    -0.7110     0.6680 ho         1 54G       0.391000
     16 H6          -2.5600    -0.2550     0.1910 hc         1 54G       0.027033
     17 H7          -2.5760    -0.7190     1.8980 hc         1 54G       0.027033
     18 H8          -2.5720     0.9910     1.4460 hc         1 54G       0.027033
@<TRIPOS>BOND
     1    11    10 1
     2    10     2 ar
     3    10     1 ar
     4     2     4 ar
     5     1     6 ar
     6     8     3 1
     7     4     3 1
     8     4     5 ar
     9     3     7 1
    10     6     5 ar
    11     5     9 1
    12     1    12 1
    13     2    13 1
    14     6    14 1
    15     9    15 1
    16    11    16 1
    17    11    17 1
    18    11    18 1
@<TRIPOS>SUBSTRUCTURE
     1 54G         1 TEMP              0 ****  ****    0 ROOT
