@<TRIPOS>MOLECULE
54H
   53    52     1     0     0
SMALL
bcc


@<TRIPOS>ATOM
      1 C4          0.2190    0.1430    0.5290 c2        1 54H      0.121000
      2 C5          1.2680   -0.8080    0.2640 c2        1 54H     -0.269000
      3 C6          1.8470   -1.5080    1.3910 c2        1 54H      0.276000
      4 C8          0.6990   -0.0050   -1.6900 c2        1 54H     -0.064000
      5 N1          1.3680   -1.2280    2.6520 n2        1 54H     -0.301000
      6 N3         -0.2110    0.3760    1.8030 nh        1 54H     -0.187000
      7 CB          2.4300    0.1190   -7.4620 c2        1 54H     -0.162000
      8 CG1         1.6010    1.3090   -7.7610 c3        1 54H     -0.176000
      9 CA          1.9900   -0.8860   -6.6560 c2        1 54H     -0.037000
     10 N           2.7750   -1.9480   -6.2110 n3        1 54H     -0.315000
     11 C           0.5970   -0.8350   -6.0810 c2        1 54H      0.373000
     12 O           0.3630   -0.7450   -4.8690 o         1 54H     -0.304000
     13 NAP        -0.4600   -0.9050   -6.9980 n         1 54H     -0.883000
     14 SBD        -2.0640   -1.0500   -6.6960 s6        1 54H      2.793000
     15 OAF        -2.7410   -0.7990   -7.8850 o         1 54H     -0.915000
     16 OAG        -2.3800   -2.1440   -5.9160 o         1 54H     -0.915000
     17 O5'        -2.4360    0.2420   -5.7090 os        1 54H     -0.696000
     18 C4'        -2.2660    2.1190   -2.9190 c1        1 54H      0.078000
     19 O4'        -1.2360    2.2050   -2.1390 os        1 54H     -0.168000
     20 C3'        -3.3350    1.1050   -2.6230 c3        1 54H     -0.153000
     21 O3'        -3.0700    0.3850   -1.4270 oh        1 54H     -0.332000
     22 C2'        -4.7200    1.7610   -2.6060 c3        1 54H     -0.026000
     23 O2'        -5.5350    1.1490   -1.6290 oh        1 54H     -0.324000
     24 C1'        -1.1220    1.6230   -0.8680 c1        1 54H      0.142000
     25 N9         -0.1640    0.6820   -0.7410 na        1 54H     -0.197000
     26 N7          1.5310   -0.8670   -1.1250 n2        1 54H     -0.074000
     27 C2          0.3950   -0.3370    2.8450 c1        1 54H     -0.003000
     28 N6          2.8410   -2.4150    1.1830 n3        1 54H     -0.342000
     29 H8          0.6080    0.2010   -2.7700 h5        1 54H      0.238000
     30 HG2         4.5640    0.1890   -7.2550 hc        1 54H      0.085000
     31 HG2A        3.9250    0.9340   -8.7790 hc        1 54H      0.085000
     32 HG2B        3.9670   -0.8660   -8.6040 hc        1 54H      0.085000
     33 HG1         2.2520    2.2120   -7.8850 hc        1 54H      0.085000
     34 HG1A        0.2470    1.6960   -4.5620 ha        1 54H      0.001500
     35 HG1B        0.8730    1.5300   -6.9390 hc        1 54H      0.085000
     36 HA          1.0340    1.1600   -8.7140 hc        1 54H      0.085000
     37 HN          3.5390   -2.1790   -6.8070 hn        1 54H      0.198500
     38 HNA         2.2710   -2.7350   -5.8680 hn        1 54H      0.198500
     39 HNAP       -0.1580   -0.8210   -7.9490 hn        1 54H      0.262000
     40 H4'        -1.4780    1.8370   -6.6330 h1        1 54H      0.094000
     41 H3'        -3.2720    0.3300   -3.4510 h1        1 54H      0.172000
     42 HO3'       -3.5300    0.8270   -0.6970 ho        1 54H      0.231000
     43 H2'        -5.1870    1.6930   -3.6220 h1        1 54H      0.104000
     44 HO2'       -5.6160    0.2140   -1.8610 ho        1 54H      0.213000
     45 H1'        -4.6590    2.8370   -2.2900 h1        1 54H      0.104000
     46 H2         -0.9370    1.0310    1.9960 hn        1 54H      0.266000
     47 HN6         3.1530   -2.5990    0.2620 hn        1 54H      0.247500
     48 HN6A        3.2410   -2.9070    1.9450 hn        1 54H      0.247500
     49 C5'        -2.4730    1.5600   -6.1990 c3        1 54H     -0.040000
     50 HB         -0.4230    1.6150   -4.4960 ha        1 54H      0.001500
     51 CG2         3.7870    0.0940   -8.0560 c3        1 54H     -0.176000
     52 H5'        -3.2790    1.6570   -6.9690 h1        1 54H      0.094000
     53 H5'A       -2.6880    2.2000   -5.3000 h1        1 54H      0.094000
@<TRIPOS>BOND
     1    1    2 1
     2    1    6 1
     3    1   25 1
     4    2    3 1
     5    2   26 1
     6    3    5 1
     7    3   28 1
     8    4   25 1
     9    4   26 1
    10    4   29 1
    11    5   27 1
    12    6   27 1
    13    6   46 1
    14    7    8 1
    15    7    9 1
    16    7   51 1
    17    8   33 1
    18    8   35 1
    19    8   36 1
    20    9   10 1
    21    9   11 1
    22   10   37 1
    23   10   38 1
    24   11   12 1
    25   11   13 1
    26   13   14 1
    27   13   39 1
    28   14   15 1
    29   14   16 1
    30   14   17 1
    31   17   49 1
    32   18   19 1
    33   18   20 1
    34   19   24 1
    35   20   21 1
    36   20   22 1
    37   20   41 1
    38   21   42 1
    39   22   23 1
    40   22   43 1
    41   22   45 1
    42   23   44 1
    43   24   25 1
    44   28   47 1
    45   28   48 1
    46   30   51 1
    47   31   51 1
    48   32   51 1
    49   34   50 1
    50   40   49 1
    51   49   52 1
    52   49   53 1
@<TRIPOS>SUBSTRUCTURE
     1 54H         1 TEMP              0 ****  ****    0 ROOT
