@<TRIPOS>MOLECULE
54J
   73    77     1     0     0
SMALL
bcc


@<TRIPOS>ATOM
      1 N3           0.0000     0.0000     0.0000 n3         1 54J      -0.542600
      2 C4           1.4680     0.0000     0.0000 c3         1 54J       0.156800
      3 C5           1.9800     0.0000     1.4410 c3         1 54J      -0.047400
      4 C6           1.4510     1.2410     2.1660 c3         1 54J       0.139500
      5 C7          -0.0790     1.2420     2.1100 c3         1 54J      -0.047400
      6 C8          -0.5310     1.2050     0.6480 c3         1 54J       0.156800
      7 C13          3.2740     4.5930     3.9260 ca         1 54J      -0.014000
      8 C17          4.6560     3.3410     7.0280 cc         1 54J      -0.215000
      9 C21          5.3330     0.4190     9.9120 ca         1 54J       0.614900
     10 C24          3.8790     3.1860     5.7900 ca         1 54J       0.447100
     11 C26          4.9710     6.6180     5.6330 ca         1 54J      -0.217200
     12 C1          -0.1570    -1.5190    -1.9150 c3         1 54J      -0.002100
     13 C2          -0.5260    -0.1410    -1.3650 c3         1 54J       0.154800
     14 N9           1.8900     1.2170     3.5630 nh         1 54J      -0.481300
     15 C11          2.5770     2.3040     4.0960 ca         1 54J       0.523200
     16 C12          2.5940     3.5120     3.4000 ca         1 54J      -0.280300
     17 C14          3.9310     4.4330     5.1450 ca         1 54J      -0.385500
     18 N15          4.6840     5.2790     5.9350 na         1 54J       0.527500
     19 C16          5.1100     4.6190     7.0510 cd         1 54J      -0.230100
     20 C18          4.8970     2.3000     8.0560 ca         1 54J      -0.226400
     21 C19          3.8390     1.5620     8.5940 ca         1 54J       0.441700
     22 N20          4.0990     0.6400     9.5040 nb         1 54J      -0.631000
     23 N22          6.3590     1.0990     9.4390 nb         1 54J      -0.631000
     24 C23          6.1880     2.0360     8.5220 ca         1 54J       0.441700
     25 N25          3.2120     2.1710     5.2460 nb         1 54J      -0.608000
     26 C27          4.1190     7.6270     6.0700 ca         1 54J       0.127900
     27 F28          3.0160     7.3170     6.7850 f          1 54J      -0.111900
     28 C29          4.4020     8.9470     5.7740 ca         1 54J      -0.110000
     29 C30          5.5300     9.2700     5.0420 ca         1 54J      -0.116000
     30 C31          6.3840     8.2670     4.6020 ca         1 54J       0.032600
     31 N32          7.5260     8.5940     3.8610 nu         1 54J      -0.396500
     32 S33          8.3610     9.9840     4.1980 s6         1 54J       0.955900
     33 O34          9.4810     9.9390     3.3250 o          1 54J      -0.574800
     34 O35          7.3880    11.0130     4.0910 o          1 54J      -0.574800
     35 C36          8.8900     9.7860     5.9220 c3         1 54J      -0.013600
     36 C37          9.6820    11.0210     6.3570 c3         1 54J       0.005600
     37 C38         10.1300    10.8550     7.8100 c3         1 54J       0.008900
     38 C39          6.1060     6.9390     4.9030 ca         1 54J       0.104900
     39 F40          6.9380     5.9610     4.4810 f          1 54J      -0.110900
     40 H2           1.8280     0.8860    -0.5090 h1         1 54J       0.009950
     41 H3           1.8280    -0.8860    -0.5090 h1         1 54J       0.009950
     42 H4           1.6290    -0.8900     1.9490 hc         1 54J       0.029450
     43 H5           3.0640     0.0180     1.4390 hc         1 54J       0.029450
     44 H6           1.8300     2.1310     1.6780 h1         1 54J       0.046700
     45 H7          -0.4590     0.3690     2.6270 hc         1 54J       0.029450
     46 H8          -0.4570     2.1410     2.5820 hc         1 54J       0.029450
     47 H9          -1.6130     1.1880     0.6060 h1         1 54J       0.009950
     48 H10         -0.1590     2.0830     0.1340 h1         1 54J       0.009950
     49 H11          0.9080    -0.6020     3.8870 h1         1 54J       0.011700
     50 H12          2.5260    -0.4900     4.5930 h1         1 54J       0.011700
     51 H13          1.1740     0.3730     5.3390 h1         1 54J       0.011700
     52 H14          3.2990     5.5410     3.4020 ha         1 54J       0.104000
     53 H15          5.5090    -0.3430    10.6610 h5         1 54J      -0.002900
     54 H16         -0.8840    -1.8160    -2.6610 hc         1 54J       0.007367
     55 H17         -0.1520    -2.2410    -1.1070 hc         1 54J       0.007367
     56 H18          0.8270    -1.4750    -2.3670 hc         1 54J       0.007367
     57 H19         -1.6040    -0.0360    -1.3480 h1         1 54J       0.006200
     58 H20         -0.0990     0.6270    -1.9980 h1         1 54J       0.006200
     59 H21          1.9800     3.6370     2.5160 ha         1 54J       0.126000
     60 H22          5.7170     5.0520     7.8370 h4         1 54J       0.146000
     61 H23          2.8220     1.7380     8.2640 h4         1 54J      -0.009900
     62 H24          7.0360     2.5910     8.1390 h4         1 54J      -0.009900
     63 H25          3.7370     9.7320     6.1150 ha         1 54J       0.131000
     64 H26          5.7480    10.3060     4.8110 ha         1 54J       0.187000
     65 H27          7.8630     7.9650     3.1600 hn         1 54J       0.361800
     66 H28          8.0190     9.6740     6.5560 h1         1 54J       0.071200
     67 H29          9.5160     8.9060     6.0090 h1         1 54J       0.071200
     68 H30         10.5530    11.1330     5.7220 hc         1 54J       0.027700
     69 H31          9.0560    11.9010     6.2700 hc         1 54J       0.027700
     70 H32         10.7260    11.7090     8.1050 hc         1 54J       0.005700
     71 H33          9.2590    10.7850     8.4510 hc         1 54J       0.005700
     72 H34         10.7210     9.9520     7.9050 hc         1 54J       0.005700
     73 C10          1.6060     0.0480     4.4000 c3         1 54J       0.206100
@<TRIPOS>BOND
     1     1     2 1   
     2     1     6 1   
     3     1    13 1   
     4     2     3 1   
     5     2    40 1   
     6     2    41 1   
     7     3     4 1   
     8     3    42 1   
     9     3    43 1   
    10     4     5 1   
    11     4    14 1   
    12     4    44 1   
    13     5     6 1   
    14     5    45 1   
    15     5    46 1   
    16     6    47 1   
    17     6    48 1   
    18     7    16 ar  
    19     7    17 ar  
    20     7    52 1   
    21     8    10 1   
    22     8    19 2   
    23     8    20 1   
    24     9    22 ar  
    25     9    23 ar  
    26     9    53 1   
    27    10    17 ar  
    28    10    25 ar  
    29    11    18 1   
    30    11    26 ar  
    31    11    38 ar  
    32    12    13 1   
    33    12    54 1   
    34    12    55 1   
    35    12    56 1   
    36    13    57 1   
    37    13    58 1   
    38    14    15 1   
    39    14    73 1   
    40    15    16 ar  
    41    15    25 ar  
    42    16    59 1   
    43    17    18 1   
    44    18    19 1   
    45    19    60 1   
    46    20    21 ar  
    47    20    24 ar  
    48    21    22 ar  
    49    21    61 1   
    50    23    24 ar  
    51    24    62 1   
    52    26    27 1   
    53    26    28 ar  
    54    28    29 ar  
    55    28    63 1   
    56    29    30 ar  
    57    29    64 1   
    58    30    31 1   
    59    30    38 ar  
    60    31    32 1   
    61    31    65 1   
    62    32    33 2   
    63    32    34 2   
    64    32    35 1   
    65    35    36 1   
    66    35    66 1   
    67    35    67 1   
    68    36    37 1   
    69    36    68 1   
    70    36    69 1   
    71    37    70 1   
    72    37    71 1   
    73    37    72 1   
    74    38    39 1   
    75    49    73 1   
    76    50    73 1   
    77    51    73 1   
@<TRIPOS>SUBSTRUCTURE
     1 54J         1 TEMP              0 ****  ****    0 ROOT
