@<TRIPOS>MOLECULE
molecule
   19    20     1     0     0
SMALL
bcc


@<TRIPOS>ATOM
      1 N1           0.0000     0.0000     0.0000 nb         1 54K      -0.692000
      2 C2           1.3240     0.0000     0.0000 ca         1 54K       0.398200
      3 C3           2.0380     0.0000     1.1620 ca         1 54K      -0.151600
      4 C3M          3.5440    -0.0000     1.1350 c3         1 54K      -0.043800
      5 C4           1.3480     0.0000     2.3840 ca         1 54K       0.118400
      6 C5          -0.0570     0.0000     2.3540 ca         1 54K      -0.223500
      7 C6          -0.7060     0.0000     1.1200 ca         1 54K       0.679200
      8 N6          -2.0950     0.0000     1.0650 nv         1 54K      -1.085500
      9 N7          -0.4650    -0.0000     3.6720 na         1 54K      -0.251300
     10 C8           0.6550    -0.0000     4.4410 cc         1 54K       0.431700
     11 N9           1.7160    -0.0000     3.6850 nd         1 54K      -0.606100
     12 H1           1.8530     0.0000    -0.9460 h4         1 54K       0.026100
     13 H2           3.8970    -0.8980     0.6430 hc         1 54K       0.049700
     14 H3           3.8960     0.8700     0.5940 hc         1 54K       0.049700
     15 H4           3.9240     0.0280     2.1490 hc         1 54K       0.049700
     16 H5          -2.5940    -0.8670     1.0210 hn         1 54K       0.433800
     17 H6          -2.5940     0.8670     1.0320 hn         1 54K       0.433800
     18 H7          -1.4110    -0.0000     4.0010 hn         1 54K       0.307700
     19 H8           0.6640    -0.0000     5.5240 h5         1 54K       0.074800
@<TRIPOS>BOND
     1     4     3 1
     2     2     3 ar
     3     2     1 ar
     4     3     5 ar
     5     1     7 ar
     6     5    11 1
     7     5     6 ar
     8     7     6 ar
     9     7     8 1
    10    11    10 2
    11     6     9 1
    12    10     9 1
    13     2    12 1
    14     4    13 1
    15     4    14 1
    16     4    15 1
    17     8    16 1
    18     8    17 1
    19     9    18 1
    20    10    19 1
@<TRIPOS>SUBSTRUCTURE
     1 54K         1 TEMP              0 ****  ****    0 ROOT
