@<TRIPOS>MOLECULE
54K
   19    20     1     0     0
SMALL
bcc


@<TRIPOS>ATOM
      1 N1           0.0000     0.0000     0.0000 nb         1 54K      -0.574000
      2 C2           1.3240     0.0000     0.0000 ca         1 54K       0.375200
      3 C3           2.0380     0.0000     1.1620 ca         1 54K      -0.142600
      4 C3M          3.5440    -0.0000     1.1350 c3         1 54K       0.064200
      5 C4           1.3480     0.0000     2.3840 ca         1 54K       0.088400
      6 C5          -0.0570     0.0000     2.3540 ca         1 54K      -0.400500
      7 C6          -0.7060     0.0000     1.1200 ca         1 54K       0.508200
      8 N6          -2.0950     0.0000     1.0650 nv         1 54K      -0.661500
      9 N7          -0.4650    -0.0000     3.6720 na         1 54K       0.286700
     10 C8           0.6550    -0.0000     4.4410 cc         1 54K       0.242700
     11 N9           1.7160    -0.0000     3.6850 nd         1 54K      -0.518100
     12 H1           1.8530     0.0000    -0.9460 h4         1 54K      -0.016900
     13 H2           3.8970    -0.8980     0.6430 hc         1 54K       0.014033
     14 H3           3.8960     0.8700     0.5940 hc         1 54K       0.014033
     15 H4           3.9240     0.0280     2.1490 hc         1 54K       0.014033
     16 H5          -2.5940    -0.8670     1.0210 hn         1 54K       0.273800
     17 H6          -2.5940     0.8670     1.0320 hn         1 54K       0.273800
     18 H7          -1.4110    -0.0000     4.0010 hn         1 54K       0.129700
     19 H8           0.6640    -0.0000     5.5240 h5         1 54K       0.027800
@<TRIPOS>BOND
     1     1     2 ar  
     2     1     7 ar  
     3     2     3 ar  
     4     2    12 1   
     5     3     4 1   
     6     3     5 ar  
     7     4    13 1   
     8     4    14 1   
     9     4    15 1   
    10     5     6 ar  
    11     5    11 1   
    12     6     7 ar  
    13     6     9 1   
    14     7     8 1   
    15     8    16 1   
    16     8    17 1   
    17     9    10 1   
    18     9    18 1   
    19    10    11 2   
    20    10    19 1   
@<TRIPOS>SUBSTRUCTURE
     1 54K         1 TEMP              0 ****  ****    0 ROOT
