@<TRIPOS>MOLECULE
molecule
   12    11     1     0     0
SMALL
bcc


@<TRIPOS>ATOM
      1 C38          0.0000     0.0000     0.0000 c          1 54L       0.926600
      2 O39          1.2080     0.0000     0.0000 o          1 54L      -0.848800
      3 C40         -0.7530     0.0000     1.3050 c3         1 54L      -0.423400
      4 C41          0.2410     0.0000     2.4680 c3         1 54L      -0.265300
      5 C42         -0.4940     0.0000     3.7430 c1         1 54L       0.069900
      6 C43         -1.0780     0.0210     4.7610 c1         1 54L      -0.280500
      7 H2          -0.1280     0.4480     2.0690 hc         1 54L       0.147700
      8 H3          -1.6830     0.5390     1.4380 hc         1 54L       0.147700
      9 H4           1.1430    -0.5150     2.1620 hc         1 54L       0.110200
     10 H5          -0.1260    -0.1270     3.4790 hc         1 54L       0.110200
     11 H6          -1.5880    -0.4850     5.5730 ha         1 54L       0.153500
     12 O1          -0.6710     0.0060    -1.1630 o          1 54L      -0.848800
@<TRIPOS>BOND
     1     4     3 1
     2     4     5 1
     3     1     3 1
     4     1     2 1
     5     5     6 3
     6     3     7 1
     7     3     8 1
     8     4     9 1
     9     4    10 1
    10     6    11 1
    11     1    12 1
@<TRIPOS>SUBSTRUCTURE
     1 54L         1 TEMP              0 ****  ****    0 ROOT
