@<TRIPOS>MOLECULE
54L
   12    10     1     0     0
SMALL
bcc


@<TRIPOS>ATOM
      1 C38        -1.0910   -0.2740   -0.0520 c2        1 54L      0.260000
      2 O39        -1.7600    0.4970    0.7080 o         1 54L     -0.590000
      3 C40        -1.6790   -0.6790   -1.3360 c1        1 54L     -0.076000
      4 C41         0.4950    0.4190    2.9640 c3        1 54L     -0.170000
      5 C42         0.4230    0.2390    4.3770 c1        1 54L     -0.089000
      6 C43         0.3620    0.0880    5.5640 c1        1 54L     -0.340000
      7 H2         -1.4380   -0.0150   -2.1820 ha        1 54L      0.007000
      8 H3          1.0730    1.3450    2.7170 hc        1 54L      0.130667
      9 H4         -0.5280    0.5040    2.4880 hc        1 54L      0.130667
     10 H5          0.9870   -0.4550    2.4590 hc        1 54L      0.130667
     11 H6          0.2990   -0.0500    6.6090 ha        1 54L      0.197000
     12 O1          0.0530   -0.7330    0.2650 o         1 54L     -0.590000
@<TRIPOS>BOND
     1    1    2 1   
     2    1    3 1   
     3    1   12 1   
     4    3    7 1   
     5    4    5 1   
     6    4    8 1   
     7    4    9 1   
     8    4   10 1   
     9    5    6 1   
    10    6   11 1   
@<TRIPOS>SUBSTRUCTURE
     1 54L         1 TEMP              0 ****  ****    0 ROOT
