@<TRIPOS>MOLECULE
molecule
   47    50     1     0     0
SMALL
bcc


@<TRIPOS>ATOM
      1 C15          0.0000     0.0000     0.0000 c3         1 54M       0.124700
      2 O14          1.4290     0.0000     0.0000 os         1 54M      -0.312900
      3 C2           2.0460     0.0000     1.2110 ca         1 54M       0.170100
      4 C3           3.4310     0.0000     1.2850 ca         1 54M      -0.179500
      5 C4           4.0550    -0.0000     2.5180 ca         1 54M      -0.078500
      6 C1           1.2910     0.0050     2.3750 ca         1 54M      -0.179500
      7 C6           1.9190     0.0040     3.6050 ca         1 54M      -0.078500
      8 C5           3.3000    -0.0010     3.6770 ca         1 54M      -0.149300
      9 C7           3.9840    -0.0020     5.0200 c3         1 54M       0.236800
     10 C19          4.9760     1.1800     5.1180 c3         1 54M      -0.089400
     11 C17          3.0440     1.4360     6.5340 c2         1 54M       0.368200
     12 N16          3.0060     0.2290     6.0890 n2         1 54M      -0.477900
     13 N20          2.2390     1.9210     7.5300 nz         1 54M      -0.718600
     14 C8           4.7020    -1.3080     5.2390 ca         1 54M      -0.091300
     15 C13          4.0420    -2.3680     5.8270 ca         1 54M      -0.102000
     16 C9           6.0220    -1.4460     4.8450 ca         1 54M      -0.120000
     17 C10          6.6870    -2.6420     5.0430 ca         1 54M      -0.108000
     18 C11          6.0370    -3.7060     5.6340 ca         1 54M      -0.101000
     19 C12          4.7070    -3.5760     6.0290 cp         1 54M      -0.017000
     20 C21          4.0020    -4.7180     6.6600 cp         1 54M      -0.302600
     21 C14          4.0970     2.2480     5.8120 c3         1 54M      -0.155700
     22 C26          4.6530    -5.9360     6.8700 ca         1 54M       0.468200
     23 N21          3.9880    -6.9280     7.4370 nb         1 54M      -0.726500
     24 C24          2.7300    -6.7790     7.8010 ca         1 54M       0.690900
     25 N23          2.0780    -5.6480     7.6220 nb         1 54M      -0.726500
     26 C22          2.6700    -4.6030     7.0670 ca         1 54M       0.468200
     27 H151        -0.3610    -0.0120    -1.0210 h1         1 54M       0.049367
     28 H152        -0.3610    -0.8790     0.5210 h1         1 54M       0.049367
     29 H153        -0.3610     0.8900     0.5010 h1         1 54M       0.049367
     30 H3           4.0220     0.0540     0.3790 ha         1 54M       0.155000
     31 H1           0.2100     0.0420     2.3190 ha         1 54M       0.155000
     32 H4           5.1370     0.0000     2.5770 ha         1 54M       0.131500
     33 H6           1.3300    -0.0220     4.5140 ha         1 54M       0.131500
     34 H191         5.2830     1.5110     4.1330 hc         1 54M       0.091700
     35 H192         5.8290     0.9200     5.7340 hc         1 54M       0.091700
     36 H141         4.6840     2.8210     6.5190 hc         1 54M       0.084200
     37 H142         3.6360     2.8960     5.0760 hc         1 54M       0.084200
     38 H201         2.1170     2.9070     7.4100 hn         1 54M       0.470467
     39 H202         1.3480     1.4670     7.4900 hn         1 54M       0.470467
     40 H13          2.9920    -2.2790     6.0800 ha         1 54M       0.141000
     41 H9           6.5360    -0.6130     4.3800 ha         1 54M       0.132000
     42 H10          7.7200    -2.7440     4.7330 ha         1 54M       0.150000
     43 H11          6.5780    -4.6200     5.8480 ha         1 54M       0.147000
     44 H26          5.6870    -6.0660     6.5730 h4         1 54M       0.030100
     45 H22          2.1290    -3.6760     6.9230 h4         1 54M       0.030100
     46 H24          2.2140    -7.6140     8.2610 h5         1 54M       0.071100
     47 H203         2.6620     1.7410     8.4190 hn         1 54M       0.470467
@<TRIPOS>BOND
     1     1     2 1
     2     2     3 1
     3     3     4 ar
     4     3     6 ar
     5     4     5 ar
     6     5     8 ar
     7     6     7 ar
     8     7     8 ar
     9     8     9 1
    10     9    10 1
    11     9    12 1
    12     9    14 1
    13    10    21 1
    14    11    12 2
    15    11    13 1
    16    11    21 1
    17    14    15 ar
    18    14    16 ar
    19    15    19 ar
    20    16    17 ar
    21    17    18 ar
    22    18    19 ar
    23    19    20 1
    24    20    22 ar
    25    20    26 ar
    26    22    23 ar
    27    23    24 ar
    28    24    25 ar
    29    25    26 ar
    30     1    27 1
    31     1    28 1
    32     1    29 1
    33     4    30 1
    34     6    31 1
    35     5    32 1
    36     7    33 1
    37    10    34 1
    38    10    35 1
    39    21    36 1
    40    21    37 1
    41    13    38 1
    42    13    39 1
    43    15    40 1
    44    16    41 1
    45    17    42 1
    46    18    43 1
    47    22    44 1
    48    26    45 1
    49    24    46 1
    50    47    13 1
@<TRIPOS>SUBSTRUCTURE
     1 54M         1 TEMP              0 ****  ****    0 ROOT
