@<TRIPOS>MOLECULE
54M
   47    50     1     0     0
SMALL
bcc


@<TRIPOS>ATOM
      1 C15          0.0000     0.0000     0.0000 c3         1 54M       0.244700
      2 O14          1.4290     0.0000     0.0000 os         1 54M      -0.293900
      3 C2           2.0460     0.0000     1.2110 ca         1 54M       0.183100
      4 C3           3.4310     0.0000     1.2850 ca         1 54M      -0.161000
      5 C4           4.0550    -0.0000     2.5180 ca         1 54M      -0.050500
      6 C1           1.2910     0.0050     2.3750 ca         1 54M      -0.161000
      7 C6           1.9190     0.0040     3.6050 ca         1 54M      -0.050500
      8 C5           3.3000    -0.0010     3.6770 ca         1 54M      -0.173300
      9 C7           3.9840    -0.0020     5.0200 c3         1 54M       0.229800
     10 C19          4.9760     1.1800     5.1180 c3         1 54M      -0.048400
     11 C17          3.0440     1.4360     6.5340 c2         1 54M       0.063200
     12 N16          3.0060     0.2290     6.0890 n2         1 54M      -0.315900
     13 N20          2.2390     1.9210     7.5300 nz         1 54M       0.240400
     14 C8           4.7020    -1.3080     5.2390 ca         1 54M      -0.114300
     15 C13          4.0420    -2.3680     5.8270 ca         1 54M      -0.089000
     16 C9           6.0220    -1.4460     4.8450 ca         1 54M      -0.097000
     17 C10          6.6870    -2.6420     5.0430 ca         1 54M      -0.075000
     18 C11          6.0370    -3.7060     5.6340 ca         1 54M      -0.076000
     19 C12          4.7070    -3.5760     6.0290 cp         1 54M      -0.004000
     20 C21          4.0020    -4.7180     6.6600 cp         1 54M      -0.291600
     21 C14          4.0970     2.2480     5.8120 c3         1 54M      -0.052700
     22 C26          4.6530    -5.9360     6.8700 ca         1 54M       0.446700
     23 N21          3.9880    -6.9280     7.4370 nb         1 54M      -0.615500
     24 C24          2.7300    -6.7790     7.8010 ca         1 54M       0.641900
     25 N23          2.0780    -5.6480     7.6220 nb         1 54M      -0.615500
     26 C22          2.6700    -4.6030     7.0670 ca         1 54M       0.446700
     27 H151        -0.3610    -0.0120    -1.0210 h1         1 54M       0.003367
     28 H152        -0.3610    -0.8790     0.5210 h1         1 54M       0.003367
     29 H153        -0.3610     0.8900     0.5010 h1         1 54M       0.003367
     30 H3           4.0220     0.0540     0.3790 ha         1 54M       0.131000
     31 H1           0.2100     0.0420     2.3190 ha         1 54M       0.131000
     32 H4           5.1370     0.0000     2.5770 ha         1 54M       0.103500
     33 H6           1.3300    -0.0220     4.5140 ha         1 54M       0.103500
     34 H191         5.2830     1.5110     4.1330 hc         1 54M       0.061700
     35 H192         5.8290     0.9200     5.7340 hc         1 54M       0.061700
     36 H141         4.6840     2.8210     6.5190 hc         1 54M       0.046700
     37 H142         3.6360     2.8960     5.0760 hc         1 54M       0.046700
     38 H201         2.1170     2.9070     7.4100 hn         1 54M       0.212133
     39 H202         1.3480     1.4670     7.4900 hn         1 54M       0.212133
     40 H13          2.9920    -2.2790     6.0800 ha         1 54M       0.120000
     41 H9           6.5360    -0.6130     4.3800 ha         1 54M       0.111000
     42 H10          7.7200    -2.7440     4.7330 ha         1 54M       0.118000
     43 H11          6.5780    -4.6200     5.8480 ha         1 54M       0.122000
     44 H26          5.6870    -6.0660     6.5730 h4         1 54M      -0.011900
     45 H22          2.1290    -3.6760     6.9230 h4         1 54M      -0.011900
     46 H24          2.2140    -7.6140     8.2610 h5         1 54M       0.008100
     47 H203         2.6620     1.7410     8.4190 hn         1 54M       0.212133
@<TRIPOS>BOND
     1     1     2 1   
     2     1    27 1   
     3     1    28 1   
     4     1    29 1   
     5     2     3 1   
     6     3     4 ar  
     7     3     6 ar  
     8     4     5 ar  
     9     4    30 1   
    10     5     8 ar  
    11     5    32 1   
    12     6     7 ar  
    13     6    31 1   
    14     7     8 ar  
    15     7    33 1   
    16     8     9 1   
    17     9    10 1   
    18     9    12 1   
    19     9    14 1   
    20    10    21 1   
    21    10    34 1   
    22    10    35 1   
    23    11    12 2   
    24    11    13 1   
    25    11    21 1   
    26    13    38 1   
    27    13    39 1   
    28    13    47 1   
    29    14    15 ar  
    30    14    16 ar  
    31    15    19 ar  
    32    15    40 1   
    33    16    17 ar  
    34    16    41 1   
    35    17    18 ar  
    36    17    42 1   
    37    18    19 ar  
    38    18    43 1   
    39    19    20 1   
    40    20    22 ar  
    41    20    26 ar  
    42    21    36 1   
    43    21    37 1   
    44    22    23 ar  
    45    22    44 1   
    46    23    24 ar  
    47    24    25 ar  
    48    24    46 1   
    49    25    26 ar  
    50    26    45 1   
@<TRIPOS>SUBSTRUCTURE
     1 54M         1 TEMP              0 ****  ****    0 ROOT
