@<TRIPOS>MOLECULE
molecule
   15    14     1     0     0
SMALL
bcc


@<TRIPOS>ATOM
      1 C2           0.0000     0.0000     0.0000 c3         1 54O      -0.052400
      2 O2           1.8380     1.2370    -2.3440 o          1 54O      -0.708200
      3 S1           2.1340    -0.0010    -1.7100 s6         1 54O       1.259800
      4 O3           1.8380    -1.2370    -2.3440 o          1 54O      -0.708200
      5 O1           3.6500    -0.0000    -1.5770 o          1 54O      -0.708200
      6 C3           1.5300     0.0000     0.0000 c3         1 54O      -0.258600
      7 C1          -0.5110     0.0000     1.4420 c3         1 54O       0.140400
      8 O4          -1.9390     0.0000     1.4430 oh         1 54O      -0.620800
      9 H1          -0.3610    -0.8840    -0.5110 hc         1 54O       0.054200
     10 H2          -0.3610     0.8840    -0.5110 hc         1 54O       0.054200
     11 H3           1.8910    -0.8840     0.5110 h1         1 54O       0.070700
     12 H4           1.8910     0.8850     0.5100 h1         1 54O       0.070700
     13 H5          -0.1500    -0.8850     1.9530 h1         1 54O       0.012200
     14 H6          -0.1490     0.8840     1.9530 h1         1 54O       0.012200
     15 H7          -2.2530     0.0000     2.3320 ho         1 54O       0.383000
@<TRIPOS>BOND
     1     4     3 1
     2     2     3 1
     3     3     5 1
     4     3     6 1
     5     1     6 1
     6     1     7 1
     7     7     8 1
     8     1     9 1
     9     1    10 1
    10     6    11 1
    11     6    12 1
    12     7    13 1
    13     7    14 1
    14     8    15 1
@<TRIPOS>SUBSTRUCTURE
     1 54O         1 TEMP              0 ****  ****    0 ROOT
