@<TRIPOS>MOLECULE
54O
   15    14     1     0     0
SMALL
bcc


@<TRIPOS>ATOM
      1 C2          0.0270    0.0040   -0.0120 c3        1 54O     -0.037400
      2 O2          1.7300    1.1890   -2.2820 o         1 54O     -0.751533
      3 S1          2.2030   -0.0040   -1.6860 s6        1 54O      1.428800
      4 O3          1.7130   -1.1860   -2.2900 o         1 54O     -0.751533
      5 O1          3.6030   -0.0150   -1.4680 o         1 54O     -0.751533
      6 C3          1.5270   -0.0050   -0.0350 c3        1 54O     -0.290600
      7 C1         -0.4880    0.0020    1.4160 c3        1 54O      0.131400
      8 O4         -1.9100    0.0100    1.3750 oh        1 54O     -0.608800
      9 H1         -0.3690   -0.8970   -0.5520 hc        1 54O      0.060700
     10 H2         -0.3590    0.9120   -0.5460 hc        1 54O      0.060700
     11 H3          1.9220    0.8890    0.5050 h1        1 54O      0.060700
     12 H4          1.9120   -0.9050    0.5000 h1        1 54O      0.060700
     13 H5         -0.1240    0.9100    1.9680 h1        1 54O      0.006700
     14 H6         -0.1340   -0.9140    1.9620 h1        1 54O      0.006700
     15 H7         -2.2060    0.0090    2.2910 ho        1 54O      0.376000
@<TRIPOS>BOND
     1    1    6 1   
     2    1    7 1   
     3    1    9 1   
     4    1   10 1   
     5    2    3 1   
     6    3    4 1   
     7    3    5 1   
     8    3    6 1   
     9    6   11 1   
    10    6   12 1   
    11    7    8 1   
    12    7   13 1   
    13    7   14 1   
    14    8   15 1   
@<TRIPOS>SUBSTRUCTURE
     1 54O         1 TEMP              0 ****  ****    0 ROOT
