@<TRIPOS>MOLECULE
molecule
   37    38     1     0     0
SMALL
bcc


@<TRIPOS>ATOM
      1 C2           0.0000     0.0000     0.0000 c3         1 54P       0.155800
      2 C4           3.5020     0.0010    -1.3310 ca         1 54P      -0.078300
      3 C5           4.1910     1.2010    -1.3070 ca         1 54P      -0.104000
      4 C6           5.5700     1.2070    -1.2650 ca         1 54P      -0.111000
      5 C8           5.5710    -1.2050    -1.2710 ca         1 54P       0.035400
      6 C7           6.2700     0.0030    -1.2470 cp         1 54P      -0.026000
      7 C10          7.7530     0.0030    -1.2010 cp         1 54P      -0.048000
      8 C15          8.4790     0.7850    -2.0980 ca         1 54P      -0.106500
      9 C14          9.8590     0.7830    -2.0510 ca         1 54P      -0.131500
     10 C13         10.5200     0.0060    -1.1170 ca         1 54P      -0.122000
     11 C12          9.8040    -0.7720    -0.2260 ca         1 54P      -0.131500
     12 C11          8.4240    -0.7740    -0.2600 ca         1 54P      -0.106500
     13 C9           4.1900    -1.1990    -1.3140 ca         1 54P      -0.119000
     14 C3           1.9950     0.0020    -1.3720 c3         1 54P       0.205100
     15 N            1.4690     0.0000     0.0000 n7         1 54P      -0.813200
     16 C1          -0.5100     0.0000     1.4430 c3         1 54P      -0.082400
     17 C           -2.0400    -0.0000     1.4430 c3         1 54P       0.141400
     18 O           -2.5160    -0.0010     2.7900 oh         1 54P      -0.608800
     19 H1          -0.3610     0.8850    -0.5110 h1         1 54P       0.031200
     20 H2          -0.3610    -0.8850    -0.5110 h1         1 54P       0.031200
     21 H3           3.6460     2.1370    -1.3210 ha         1 54P       0.141000
     22 H4           6.1070     2.1480    -1.2460 ha         1 54P       0.143000
     23 H5           7.9620     1.3940    -2.8290 ha         1 54P       0.136500
     24 H6          10.4250     1.3910    -2.7470 ha         1 54P       0.130500
     25 H7          11.6030     0.0050    -1.0840 ha         1 54P       0.129000
     26 H8          10.3270    -1.3770     0.5050 ha         1 54P       0.130500
     27 H9           7.8640    -1.3840     0.4390 ha         1 54P       0.136500
     28 H10          3.6460    -2.1350    -1.3330 ha         1 54P       0.142000
     29 H11          1.6470    -0.8820    -1.8930 h1         1 54P       0.039700
     30 H12          1.6480     0.8870    -1.8910 h1         1 54P       0.039700
     31 H13          1.8030    -0.8100     0.4840 hn         1 54P       0.358800
     32 H15         -0.1490     0.8850     1.9530 hc         1 54P       0.062200
     33 H16         -0.1490    -0.8840     1.9530 hc         1 54P       0.062200
     34 H17         -2.4010    -0.8840     0.9320 h1         1 54P       0.018200
     35 H18         -2.4010     0.8850     0.9320 h1         1 54P       0.018200
     36 H19         -3.4590    -0.0010     2.7900 ho         1 54P       0.402000
     37 Cl           6.4350    -2.7100    -1.2500 cl         1 54P      -0.103400
@<TRIPOS>BOND
     1     9     8 ar  
     2     9    10 ar  
     3     8     7 ar  
     4    10    11 ar  
     5     7     6 1   
     6     7    12 ar  
     7    11    12 ar  
     8     4     6 ar  
     9     4     3 ar  
    10     6     5 ar  
    11     3     2 ar  
    12     5    37 1   
    13     5    13 ar  
    14     2    13 ar  
    15     2    14 1   
    16    14    15 1   
    17     1    15 1   
    18     1    16 1   
    19    17    18 1   
    20    17    16 1   
    21     1    19 1   
    22     1    20 1   
    23     3    21 1   
    24     4    22 1   
    25     8    23 1   
    26     9    24 1   
    27    10    25 1   
    28    11    26 1   
    29    12    27 1   
    30    13    28 1   
    31    14    29 1   
    32    14    30 1   
    33    15    31 1   
    34    16    32 1   
    35    16    33 1   
    36    17    34 1   
    37    17    35 1   
    38    18    36 1   
@<TRIPOS>SUBSTRUCTURE
     1 54P         1 TEMP              0 ****  ****    0 ROOT
