@<TRIPOS>MOLECULE
molecule
   45    48     1     0     0
SMALL
bcc


@<TRIPOS>ATOM
      1 O5           0.0000     0.0000     0.0000 o          1 54Q      -0.210500
      2 N3           1.2180     0.0000     0.0000 no         1 54Q       0.299200
      3 O4           1.8270     0.0000     1.0550 o          1 54Q      -0.210500
      4 C9           1.9590    -0.0070    -1.2820 ca         1 54Q      -0.190200
      5 C8           1.2690    -0.0130    -2.4800 ca         1 54Q      -0.039000
      6 C7           1.9610    -0.0240    -3.6710 ca         1 54Q      -0.184000
      7 C10          3.3390    -0.0010    -1.2820 ca         1 54Q      -0.034000
      8 C11          4.0420    -0.0060    -2.4760 ca         1 54Q      -0.139300
      9 C6           3.3560    -0.0270    -3.6790 ca         1 54Q       0.192600
     10 N            4.0010    -0.0560    -4.9120 nh         1 54Q      -0.584000
     11 C5           3.2380     0.6550    -5.9470 c3         1 54Q       0.135800
     12 C3           3.9250     0.4500    -7.3000 c3         1 54Q       0.139100
     13 C4           3.1900     1.2610    -8.3720 c3         1 54Q      -0.087100
     14 O            5.2820     0.8920    -7.2180 os         1 54Q      -0.409600
     15 C1           6.0500     0.2200    -6.2130 c3         1 54Q       0.144100
     16 C2           7.4680     0.7960    -6.1830 c3         1 54Q      -0.125100
     17 C12          5.5490     0.0240    -2.4150 c3         1 54Q      -0.001100
     18 C13          6.1360    -0.3580    -3.7760 c3         1 54Q      -0.202000
     19 C            5.3810     0.4300    -4.8520 c3         1 54Q       0.170500
     20 C16          5.9530    -1.8310    -4.0090 c          1 54Q       0.699000
     21 O3           4.8300    -2.2910    -4.0150 o          1 54Q      -0.574000
     22 N2           6.9930    -2.6510    -4.2090 ns         1 54Q      -0.572500
     23 C15          8.2580    -2.2040    -4.2160 c          1 54Q       0.811500
     24 O2           9.1640    -2.9920    -4.4000 o          1 54Q      -0.624500
     25 N1           8.5470    -0.9080    -4.0250 ns         1 54Q      -0.572500
     26 C14          7.5920     0.0080    -3.8140 c          1 54Q       0.699000
     27 O1           7.9120     1.1660    -3.6510 o          1 54Q      -0.574000
     28 H12          0.1870    -0.0680    -2.4820 ha         1 54Q       0.167000
     29 H11          1.4170    -0.0290    -4.6090 ha         1 54Q       0.153000
     30 H13          3.8770     0.0070    -0.3420 ha         1 54Q       0.165000
     31 H9           2.2300     0.2590    -5.9890 h1         1 54Q       0.061700
     32 H10          3.2080     1.7120    -5.7120 h1         1 54Q       0.061700
     33 H2           3.9040    -0.6010    -7.5590 h1         1 54Q       0.055700
     34 H7           3.7130     1.1680    -9.3160 hc         1 54Q       0.050367
     35 H8           3.1590     2.3030    -8.0770 hc         1 54Q       0.050367
     36 H6           2.1800     0.8850    -8.4790 hc         1 54Q       0.050367
     37 H1           6.0880    -0.8390    -6.4360 h1         1 54Q       0.049700
     38 H3           8.1620     0.0300    -5.8580 hc         1 54Q       0.064033
     39 H5           7.7420     1.1330    -7.1750 hc         1 54Q       0.064033
     40 H4           7.5040     1.6310    -5.4940 hc         1 54Q       0.064033
     41 H14          5.8760     1.0230    -2.1520 hc         1 54Q       0.078200
     42 H15          5.8910    -0.6800    -1.6670 hc         1 54Q       0.078200
     43 H            5.3860     1.4840    -4.6020 h1         1 54Q       0.082700
     44 H17          6.8220    -3.6260    -4.3580 hn         1 54Q       0.372500
     45 H16          9.5050    -0.6170    -4.0380 hn         1 54Q       0.372500
@<TRIPOS>BOND
     1    24    23 2
     2    23    25 1
     3    23    22 1
     4    25    26 1
     5    27    26 2
     6    26    18 1
     7    22    20 1
     8    20    18 1
     9    20    21 2
    10    18    17 1
    11    18    19 1
    12    17     8 1
    13    16    15 1
    14    19    15 1
    15    19    10 1
    16     7     8 ar
    17     7     4 ar
    18     8     9 ar
    19     3     2 1
    20    15    14 1
    21     2     4 1
    22     2     1 1
    23    10     9 1
    24    10    11 1
    25     4     5 ar
    26     9     6 ar
    27    14    12 1
    28     5     6 ar
    29    11    12 1
    30    12    13 1
    31     5    28 1
    32     6    29 1
    33     7    30 1
    34    11    31 1
    35    11    32 1
    36    12    33 1
    37    13    34 1
    38    13    35 1
    39    13    36 1
    40    15    37 1
    41    16    38 1
    42    16    39 1
    43    16    40 1
    44    17    41 1
    45    17    42 1
    46    19    43 1
    47    22    44 1
    48    25    45 1
@<TRIPOS>SUBSTRUCTURE
     1 54Q         1 TEMP              0 ****  ****    0 ROOT
