@<TRIPOS>MOLECULE
54Q
   45    48     1     0     0
SMALL
bcc


@<TRIPOS>ATOM
      1 O5           0.0000     0.0000     0.0000 o          1 54Q      -0.455500
      2 N3           1.2180     0.0000     0.0000 no         1 54Q       1.055200
      3 O4           1.8270     0.0000     1.0550 o          1 54Q      -0.455500
      4 C9           1.9590    -0.0070    -1.2820 ca         1 54Q      -0.485200
      5 C8           1.2690    -0.0130    -2.4800 ca         1 54Q       0.022000
      6 C7           1.9610    -0.0240    -3.6710 ca         1 54Q      -0.180000
      7 C10          3.3390    -0.0010    -1.2820 ca         1 54Q       0.026000
      8 C11          4.0420    -0.0060    -2.4760 ca         1 54Q      -0.156300
      9 C6           3.3560    -0.0270    -3.6790 ca         1 54Q       0.118600
     10 N            4.0010    -0.0560    -4.9120 nh         1 54Q      -0.317000
     11 C5           3.2380     0.6550    -5.9470 c3         1 54Q       0.088800
     12 C3           3.9250     0.4500    -7.3000 c3         1 54Q       0.176100
     13 C4           3.1900     1.2610    -8.3720 c3         1 54Q       0.005900
     14 O            5.2820     0.8920    -7.2180 os         1 54Q      -0.392600
     15 C1           6.0500     0.2200    -6.2130 c3         1 54Q       0.179100
     16 C2           7.4680     0.7960    -6.1830 c3         1 54Q      -0.071100
     17 C12          5.5490     0.0240    -2.4150 c3         1 54Q       0.071900
     18 C13          6.1360    -0.3580    -3.7760 c3         1 54Q      -0.201000
     19 C            5.3810     0.4300    -4.8520 c3         1 54Q       0.102500
     20 C16          5.9530    -1.8310    -4.0090 c          1 54Q       0.607500
     21 O3           4.8300    -2.2910    -4.0150 o          1 54Q      -0.610000
     22 N2           6.9930    -2.6510    -4.2090 ns         1 54Q      -0.147500
     23 C15          8.2580    -2.2040    -4.2160 c          1 54Q       0.596500
     24 O2           9.1640    -2.9920    -4.4000 o          1 54Q      -0.664500
     25 N1           8.5470    -0.9080    -4.0250 ns         1 54Q      -0.147500
     26 C14          7.5920     0.0080    -3.8140 c          1 54Q       0.607500
     27 O1           7.9120     1.1660    -3.6510 o          1 54Q      -0.610000
     28 H12          0.1870    -0.0680    -2.4820 ha         1 54Q       0.131000
     29 H11          1.4170    -0.0290    -4.6090 ha         1 54Q       0.131000
     30 H13          3.8770     0.0070    -0.3420 ha         1 54Q       0.131000
     31 H9           2.2300     0.2590    -5.9890 h1         1 54Q       0.038700
     32 H10          3.2080     1.7120    -5.7120 h1         1 54Q       0.038700
     33 H2           3.9040    -0.6010    -7.5590 h1         1 54Q       0.021700
     34 H7           3.7130     1.1680    -9.3160 hc         1 54Q       0.014033
     35 H8           3.1590     2.3030    -8.0770 hc         1 54Q       0.014033
     36 H6           2.1800     0.8850    -8.4790 hc         1 54Q       0.014033
     37 H1           6.0880    -0.8390    -6.4360 h1         1 54Q       0.015700
     38 H3           8.1620     0.0300    -5.8580 hc         1 54Q       0.035367
     39 H5           7.7420     1.1330    -7.1750 hc         1 54Q       0.035367
     40 H4           7.5040     1.6310    -5.4940 hc         1 54Q       0.035367
     41 H14          5.8760     1.0230    -2.1520 hc         1 54Q       0.041200
     42 H15          5.8910    -0.6800    -1.6670 hc         1 54Q       0.041200
     43 H            5.3860     1.4840    -4.6020 h1         1 54Q       0.062700
     44 H17          6.8220    -3.6260    -4.3580 hn         1 54Q       0.217500
     45 H16          9.5050    -0.6170    -4.0380 hn         1 54Q       0.217500
@<TRIPOS>BOND
     1     1     2 1   
     2     2     3 1   
     3     2     4 1   
     4     4     5 ar  
     5     4     7 ar  
     6     5     6 ar  
     7     5    28 1   
     8     6     9 ar  
     9     6    29 1   
    10     7     8 ar  
    11     7    30 1   
    12     8     9 ar  
    13     8    17 1   
    14     9    10 1   
    15    10    11 1   
    16    10    19 1   
    17    11    12 1   
    18    11    31 1   
    19    11    32 1   
    20    12    13 1   
    21    12    14 1   
    22    12    33 1   
    23    13    34 1   
    24    13    35 1   
    25    13    36 1   
    26    14    15 1   
    27    15    16 1   
    28    15    19 1   
    29    15    37 1   
    30    16    38 1   
    31    16    39 1   
    32    16    40 1   
    33    17    18 1   
    34    17    41 1   
    35    17    42 1   
    36    18    19 1   
    37    18    20 1   
    38    18    26 1   
    39    19    43 1   
    40    20    21 2   
    41    20    22 1   
    42    22    23 1   
    43    22    44 1   
    44    23    24 2   
    45    23    25 1   
    46    25    26 1   
    47    25    45 1   
    48    26    27 2   
@<TRIPOS>SUBSTRUCTURE
     1 54Q         1 TEMP              0 ****  ****    0 ROOT
