@<TRIPOS>MOLECULE
54R
   43    44     1     0     0
SMALL
bcc


@<TRIPOS>ATOM
      1 C1           0.0000     0.0000     0.0000 c          1 54R       0.569100
      2 C3           3.5840    -0.0060     0.9890 c3         1 54R      -0.043400
      3 C4           4.3490    -0.0130     2.3140 c3         1 54R       0.148800
      4 C5           6.5620    -0.0190     3.2990 c3         1 54R       0.204100
      5 C7           8.7090     1.1820     2.8470 ca         1 54R      -0.076000
      6 C8          10.0600     1.1900     2.5630 ca         1 54R      -0.085000
      7 C9          10.7460    -0.0140     2.4170 cp         1 54R      -0.023000
      8 C10         10.0620    -1.2210     2.5560 ca         1 54R      -0.028600
      9 C11          8.7090    -1.2160     2.8390 ca         1 54R      -0.096000
     10 C12         12.1980    -0.0120     2.1130 cp         1 54R      -0.043000
     11 C14         14.4230    -0.7820     2.5830 ca         1 54R      -0.100500
     12 C15         14.9080    -0.0070     1.5460 ca         1 54R      -0.097000
     13 C16         14.0450     0.7700     0.7940 ca         1 54R      -0.100500
     14 C17         12.6930     0.7710     1.0710 ca         1 54R      -0.089000
     15 Cl          10.9080    -2.7260     2.3750 cl         1 54R      -0.018400
     16 C13         13.0720    -0.7880     2.8700 ca         1 54R      -0.089000
     17 C6           8.0350    -0.0180     2.9840 ca         1 54R      -0.089300
     18 N1           5.7940    -0.0120     2.0470 n7         1 54R      -0.584200
     19 C2           2.0800    -0.0070     1.2690 c3         1 54R       0.052000
     20 N            1.3480     0.0000     0.0000 ns         1 54R      -0.205900
     21 O           -0.6060     0.0000     1.0510 o          1 54R      -0.648100
     22 C           -0.7540     0.0070    -1.3040 c3         1 54R      -0.067100
     23 H1           3.8460     0.8820     0.4260 hc         1 54R       0.021700
     24 H2           3.8460    -0.8870     0.4160 hc         1 54R       0.021700
     25 H3           4.0870    -0.9010     2.8770 h1         1 54R       0.010200
     26 H4           4.0870     0.8680     2.8870 h1         1 54R       0.010200
     27 H5           6.3160     0.8620     3.8780 h1         1 54R       0.011700
     28 H6           6.3150    -0.9070     3.8690 h1         1 54R       0.011700
     29 H7           8.1750     2.1180     2.9600 ha         1 54R       0.112000
     30 H8          10.5870     2.1310     2.4560 ha         1 54R       0.113000
     31 H9           8.1760    -2.1530     2.9480 ha         1 54R       0.114000
     32 H10         15.1030    -1.3860     3.1710 ha         1 54R       0.103500
     33 H11         15.9690    -0.0050     1.3240 ha         1 54R       0.102000
     34 H12         14.4310     1.3760    -0.0170 ha         1 54R       0.103500
     35 H13         12.0190     1.3800     0.4810 ha         1 54R       0.111500
     36 H14         12.6930    -1.3950     3.6830 ha         1 54R       0.111500
     37 H15          6.0330    -0.8180     1.5040 hn         1 54R       0.255800
     38 H17          1.8190     0.8740     1.8420 h1         1 54R       0.026700
     39 H18          1.8180    -0.8950     1.8320 h1         1 54R       0.026700
     40 H19          1.8480     0.0200    -0.8670 hn         1 54R       0.174500
     41 H20         -0.4840    -0.8690    -1.8820 hc         1 54R       0.022033
     42 H21         -1.8190    -0.0050    -1.1060 hc         1 54R       0.022033
     43 H22         -0.5010     0.9000    -1.8630 hc         1 54R       0.022033
@<TRIPOS>BOND
     1     1    20 1   
     2     1    21 2   
     3     1    22 1   
     4     2     3 1   
     5     2    19 1   
     6     2    23 1   
     7     2    24 1   
     8     3    18 1   
     9     3    25 1   
    10     3    26 1   
    11     4    17 1   
    12     4    18 1   
    13     4    27 1   
    14     4    28 1   
    15     5     6 ar  
    16     5    17 ar  
    17     5    29 1   
    18     6     7 ar  
    19     6    30 1   
    20     7     8 ar  
    21     7    10 1   
    22     8     9 ar  
    23     8    15 1   
    24     9    17 ar  
    25     9    31 1   
    26    10    14 ar  
    27    10    16 ar  
    28    11    12 ar  
    29    11    16 ar  
    30    11    32 1   
    31    12    13 ar  
    32    12    33 1   
    33    13    14 ar  
    34    13    34 1   
    35    14    35 1   
    36    16    36 1   
    37    18    37 1   
    38    19    20 1   
    39    19    38 1   
    40    19    39 1   
    41    20    40 1   
    42    22    41 1   
    43    22    42 1   
    44    22    43 1   
@<TRIPOS>SUBSTRUCTURE
     1 54R         1 TEMP              0 ****  ****    0 ROOT
