@<TRIPOS>MOLECULE
molecule
   43    44     1     0     0
SMALL
bcc


@<TRIPOS>ATOM
      1 C1           0.0000     0.0000     0.0000 c          1 54R       0.655100
      2 C3           3.5840    -0.0060     0.9890 c3         1 54R      -0.102400
      3 C4           4.3490    -0.0130     2.3140 c3         1 54R       0.159800
      4 C5           6.5620    -0.0190     3.2990 c3         1 54R       0.205100
      5 C7           8.7090     1.1820     2.8470 ca         1 54R      -0.104000
      6 C8          10.0600     1.1900     2.5630 ca         1 54R      -0.111000
      7 C9          10.7460    -0.0140     2.4170 cp         1 54R      -0.025000
      8 C10         10.0620    -1.2210     2.5560 ca         1 54R       0.035400
      9 C11          8.7090    -1.2160     2.8390 ca         1 54R      -0.119000
     10 C12         12.1980    -0.0120     2.1130 cp         1 54R      -0.049000
     11 C14         14.4230    -0.7820     2.5830 ca         1 54R      -0.131500
     12 C15         14.9080    -0.0070     1.5460 ca         1 54R      -0.122000
     13 C16         14.0450     0.7700     0.7940 ca         1 54R      -0.131500
     14 C17         12.6930     0.7710     1.0710 ca         1 54R      -0.106000
     15 Cl          10.9080    -2.7260     2.3750 cl         1 54R      -0.102400
     16 C13         13.0720    -0.7880     2.8700 ca         1 54R      -0.106000
     17 C6           8.0350    -0.0180     2.9840 ca         1 54R      -0.079300
     18 N1           5.7940    -0.0120     2.0470 n7         1 54R      -0.816200
     19 C2           2.0800    -0.0070     1.2690 c3         1 54R       0.112000
     20 N            1.3480     0.0000     0.0000 ns         1 54R      -0.591900
     21 O           -0.6060     0.0000     1.0510 o          1 54R      -0.609100
     22 C           -0.7540     0.0070    -1.3040 c3         1 54R      -0.171100
     23 H1           3.8460     0.8820     0.4260 hc         1 54R       0.052700
     24 H2           3.8460    -0.8870     0.4160 hc         1 54R       0.052700
     25 H3           4.0870    -0.9010     2.8770 h1         1 54R       0.036200
     26 H4           4.0870     0.8680     2.8870 h1         1 54R       0.036200
     27 H5           6.3160     0.8620     3.8780 h1         1 54R       0.041700
     28 H6           6.3150    -0.9070     3.8690 h1         1 54R       0.041700
     29 H7           8.1750     2.1180     2.9600 ha         1 54R       0.141000
     30 H8          10.5870     2.1310     2.4560 ha         1 54R       0.143000
     31 H9           8.1760    -2.1530     2.9480 ha         1 54R       0.142000
     32 H10         15.1030    -1.3860     3.1710 ha         1 54R       0.130500
     33 H11         15.9690    -0.0050     1.3240 ha         1 54R       0.129000
     34 H12         14.4310     1.3760    -0.0170 ha         1 54R       0.130500
     35 H13         12.0190     1.3800     0.4810 ha         1 54R       0.136500
     36 H14         12.6930    -1.3950     3.6830 ha         1 54R       0.136500
     37 H15          6.0330    -0.8180     1.5040 hn         1 54R       0.356800
     38 H17          1.8190     0.8740     1.8420 h1         1 54R       0.053700
     39 H18          1.8180    -0.8950     1.8320 h1         1 54R       0.053700
     40 H19          1.8480     0.0200    -0.8670 hn         1 54R       0.313500
     41 H20         -0.4840    -0.8690    -1.8820 hc         1 54R       0.060700
     42 H21         -1.8190    -0.0050    -1.1060 hc         1 54R       0.060700
     43 H22         -0.5010     0.9000    -1.8630 hc         1 54R       0.060700
@<TRIPOS>BOND
     1    13    14 ar  
     2    13    12 ar  
     3    14    10 ar  
     4    12    11 ar  
     5     6     5 ar  
     6     6     7 ar  
     7    10     7 1   
     8    10    16 ar  
     9     5    17 ar  
    10    11    16 ar  
    11     7     8 ar  
    12    17     4 1   
    13    17     9 ar  
    14     8     9 ar  
    15     8    15 1   
    16     4    18 1   
    17     3    18 1   
    18     3     2 1   
    19    19     2 1   
    20    19    20 1   
    21    20     1 1   
    22    21     1 2   
    23     1    22 1   
    24     2    23 1   
    25     2    24 1   
    26     3    25 1   
    27     3    26 1   
    28     4    27 1   
    29     4    28 1   
    30     5    29 1   
    31     6    30 1   
    32     9    31 1   
    33    11    32 1   
    34    12    33 1   
    35    13    34 1   
    36    14    35 1   
    37    16    36 1   
    38    18    37 1   
    39    19    38 1   
    40    19    39 1   
    41    20    40 1   
    42    22    41 1   
    43    22    42 1   
    44    22    43 1   
@<TRIPOS>SUBSTRUCTURE
     1 54R         1 TEMP              0 ****  ****    0 ROOT
