@<TRIPOS>MOLECULE
molecule
   59    61     1     0     0
SMALL
bcc


@<TRIPOS>ATOM
      1 C11          0.0000     0.0000     0.0000 c3         1 54S       0.169800
      2 C12          1.9960    -0.0000    -1.3710 c3         1 54S       0.205100
      3 C13          3.5030    -0.0010    -1.3300 ca         1 54S      -0.074300
      4 C14          4.1910    -1.2000    -1.3110 ca         1 54S      -0.116000
      5 C16          6.2710    -0.0020    -1.2570 cp         1 54S      -0.020000
      6 C17          5.5720     1.2050    -1.2820 ca         1 54S       0.035400
      7 C18          4.1920     1.1990    -1.3170 ca         1 54S      -0.119000
      8 C19          7.7540    -0.0030    -1.2170 cp         1 54S      -0.029000
      9 C20          8.4780     0.7700    -2.1210 ca         1 54S      -0.105500
     10 C21          9.8590     0.7670    -2.0790 ca         1 54S      -0.140000
     11 C22         10.5210    -0.0040    -1.1410 ca         1 54S      -0.128000
     12 C23          9.8070    -0.7740    -0.2420 ca         1 54S      -0.140000
     13 Cl           6.4360     2.7110    -1.2650 cl         1 54S      -0.106400
     14 C24          8.4270    -0.7730    -0.2700 ca         1 54S      -0.105500
     15 C15          5.5710    -1.2060    -1.2740 ca         1 54S      -0.113000
     16 N2           1.4700     0.0000     0.0000 n7         1 54S      -0.823200
     17 C10         -0.5100     0.0000     1.4430 c3         1 54S      -0.161400
     18 C9          -2.0170     0.0000     1.4420 c          1 54S       0.655100
     19 O3          -2.6230    -0.0000     0.3920 o          1 54S      -0.601100
     20 N1          -2.6910    -0.0000     2.6090 ns         1 54S      -0.591900
     21 C8          -4.1560     0.0000     2.6090 c3         1 54S       0.124000
     22 C7          -4.6670    -0.0000     4.0510 c3         1 54S      -0.181400
     23 C6          -6.1730     0.0000     4.0510 c          1 54S       0.649100
     24 O2          -6.7800    -0.0000     3.0000 o          1 54S      -0.565100
     25 N           -6.8470    -0.0000     5.2180 ns         1 54S      -0.472100
     26 C5          -8.2440     0.0970     5.2190 ca         1 54S       0.002600
     27 C4          -8.8900     0.8010     6.2290 ca         1 54S      -0.182000
     28 C3         -10.2690     0.9010     6.2350 ca         1 54S      -0.153000
     29 C2         -11.0140     0.3010     5.2390 ca         1 54S      -0.103000
     30 C25         -8.9820    -0.5020     4.2110 ca         1 54S      -0.096000
     31 C1         -10.3730    -0.4080     4.2210 ca         1 54S      -0.090600
     32 C          -11.1680    -1.0450     3.1500 c          1 54S       0.882200
     33 O1         -10.6080    -1.6530     2.2590 o          1 54S      -0.833300
     34 O          -12.5110    -0.9520     3.1610 o          1 54S      -0.833300
     35 H1          -0.3610    -0.8850    -0.5110 h1         1 54S       0.052200
     36 H2          -0.3610     0.8850    -0.5110 h1         1 54S       0.052200
     37 H3           1.6490     0.8840    -1.8910 h1         1 54S       0.043700
     38 H4           1.6480    -0.8850    -1.8910 h1         1 54S       0.043700
     39 H5           3.6470    -2.1360    -1.3310 ha         1 54S       0.142000
     40 H6           3.6470     2.1350    -1.3410 ha         1 54S       0.143000
     41 H7           7.9610     1.3250    -2.8950 ha         1 54S       0.139500
     42 H8          10.4230     1.3640    -2.7850 ha         1 54S       0.128500
     43 H9          11.6040    -0.0050    -1.1120 ha         1 54S       0.125000
     44 H10         10.3610    -1.3560     0.4860 ha         1 54S       0.128500
     45 H11          8.0710    -1.3400     0.5810 ha         1 54S       0.139500
     46 H12          5.9160    -2.2280    -1.3780 ha         1 54S       0.144000
     47 H13          1.8030     0.8090     0.4850 hn         1 54S       0.350800
     48 H15         -0.1490    -0.8850     1.9540 hc         1 54S       0.061700
     49 H16         -0.1490     0.8850     1.9540 hc         1 54S       0.061700
     50 H17         -2.1910    -0.0080     3.4760 hn         1 54S       0.304500
     51 H18         -4.5170     0.8850     2.0980 h1         1 54S       0.076700
     52 H19         -4.5180    -0.8840     2.0980 h1         1 54S       0.076700
     53 H20         -4.3060    -0.8850     4.5610 hc         1 54S       0.053700
     54 H21         -4.3050     0.8840     4.5620 hc         1 54S       0.053700
     55 H22         -6.3530    -0.1070     6.0810 hn         1 54S       0.304500
     56 H23         -8.3110     1.2740     7.0130 ha         1 54S       0.098000
     57 H24        -10.7670     1.4510     7.0240 ha         1 54S       0.106000
     58 H25        -12.0940     0.3800     5.2490 ha         1 54S       0.155000
     59 H26         -8.4800    -1.0510     3.4240 ha         1 54S       0.178000
@<TRIPOS>BOND
     1    13     6 1
     2     6     7 ar
     3     6     5 ar
     4     7     3 ar
     5    12    14 ar
     6    12    11 ar
     7    14     8 ar
     8    11    10 ar
     9    10     9 ar
    10     8     9 ar
    11     8     5 1
    12     5    15 ar
    13     3     2 1
    14     3     4 ar
    15     2    16 1
    16    15     4 ar
    17    16     1 1
    18     1    17 1
    19    19    18 2
    20    17    18 1
    21    18    20 1
    22    20    21 1
    23    21    22 1
    24    22    23 1
    25    23    25 1
    26    23    24 2
    27    25    26 1
    28    26    30 ar
    29    26    27 ar
    30    30    31 ar
    31    33    32 1
    32    27    28 ar
    33    31    32 1
    34    31    29 ar
    35    32    34 1
    36    28    29 ar
    37     1    35 1
    38     1    36 1
    39     2    37 1
    40     2    38 1
    41     4    39 1
    42     7    40 1
    43     9    41 1
    44    10    42 1
    45    11    43 1
    46    12    44 1
    47    14    45 1
    48    15    46 1
    49    16    47 1
    50    17    48 1
    51    17    49 1
    52    20    50 1
    53    21    51 1
    54    21    52 1
    55    22    53 1
    56    22    54 1
    57    25    55 1
    58    27    56 1
    59    28    57 1
    60    29    58 1
    61    30    59 1
@<TRIPOS>SUBSTRUCTURE
     1 54S         1 TEMP              0 ****  ****    0 ROOT
