@<TRIPOS>MOLECULE
molecule
   16    17     1     0     0
SMALL
bcc


@<TRIPOS>ATOM
      1 N1           0.0000     0.0000     0.0000 nc         1 54T      -0.593100
      2 C4          -0.2310    -0.0010     3.5800 ca         1 54T      -0.083000
      3 C5          -1.5890    -0.0010     3.8150 ca         1 54T       0.034400
      4 C6           1.2900     0.0000     0.0000 cd         1 54T       0.661100
      5 Cl          -2.1890    -0.0000     5.4450 cl         1 54T      -0.101400
      6 C           -2.4780    -0.0000     2.7490 ca         1 54T      -0.124000
      7 C3           0.2530     0.0000     2.2740 ca         1 54T      -0.034100
      8 S            1.9010     0.0000     1.6480 ss         1 54T      -0.178100
      9 N            2.0770    -0.0000    -1.1330 nv         1 54T      -0.990800
     10 C2          -0.6310     0.0000     1.1910 ca         1 54T       0.124400
     11 C1          -2.0170     0.0000     1.4570 ca         1 54T      -0.066000
     12 H1           0.4620    -0.0020     4.4130 ha         1 54T       0.151000
     13 H2          -3.5440    -0.0000     2.9380 ha         1 54T       0.150000
     14 H3           2.3700    -0.8670    -1.5390 hn         1 54T       0.448800
     15 H4           2.3700     0.8670    -1.5390 hn         1 54T       0.448800
     16 H5          -2.7220     0.0010     0.6340 ha         1 54T       0.152000
@<TRIPOS>BOND
     1     9     4 1
     2     8     4 1
     3     8     7 1
     4     4     1 2
     5     1    10 1
     6     7    10 ar
     7     7     2 ar
     8    10    11 ar
     9     2     3 ar
    10    11     6 ar
    11     3     6 ar
    12     3     5 1
    13     2    12 1
    14     6    13 1
    15     9    14 1
    16     9    15 1
    17    11    16 1
@<TRIPOS>SUBSTRUCTURE
     1 54T         1 TEMP              0 ****  ****    0 ROOT
