@<TRIPOS>MOLECULE
54T
   16    17     1     0     0
SMALL
bcc


@<TRIPOS>ATOM
      1 N1           0.0000     0.0000     0.0000 nc         1 54T      -0.452100
      2 C4          -0.2310    -0.0010     3.5800 ca         1 54T      -0.051000
      3 C5          -1.5890    -0.0010     3.8150 ca         1 54T      -0.027600
      4 C6           1.2900     0.0000     0.0000 cd         1 54T       0.486100
      5 Cl          -2.1890    -0.0000     5.4450 cl         1 54T      -0.015400
      6 C           -2.4780    -0.0000     2.7490 ca         1 54T      -0.103000
      7 C3           0.2530     0.0000     2.2740 ca         1 54T       0.006900
      8 S            1.9010     0.0000     1.6480 ss         1 54T      -0.273100
      9 N            2.0770    -0.0000    -1.1330 nv         1 54T      -0.523800
     10 C2          -0.6310     0.0000     1.1910 ca         1 54T       0.067400
     11 C1          -2.0170     0.0000     1.4570 ca         1 54T      -0.031000
     12 H1           0.4620    -0.0020     4.4130 ha         1 54T       0.124000
     13 H2          -3.5440    -0.0000     2.9380 ha         1 54T       0.118000
     14 H3           2.3700    -0.8670    -1.5390 hn         1 54T       0.278800
     15 H4           2.3700     0.8670    -1.5390 hn         1 54T       0.278800
     16 H5          -2.7220     0.0010     0.6340 ha         1 54T       0.116000
@<TRIPOS>BOND
     1     1     4 2   
     2     1    10 1   
     3     2     3 ar  
     4     2     7 ar  
     5     2    12 1   
     6     3     5 1   
     7     3     6 ar  
     8     4     8 1   
     9     4     9 1   
    10     6    11 ar  
    11     6    13 1   
    12     7     8 1   
    13     7    10 ar  
    14     9    14 1   
    15     9    15 1   
    16    10    11 ar  
    17    11    16 1   
@<TRIPOS>SUBSTRUCTURE
     1 54T         1 TEMP              0 ****  ****    0 ROOT
