@<TRIPOS>MOLECULE
molecule
   32    33     1     0     0
SMALL
bcc


@<TRIPOS>ATOM
      1 C10          0.0000     0.0000     0.0000 ca         1 54U      -0.154000
      2 C13          1.3900     0.0120     2.3980 ca         1 54U      -0.128000
      3 C01          4.1370     2.6690    -4.8860 c3         1 54U      -0.170100
      4 N03          3.7850     0.8430    -3.2560 n          1 54U      -0.498800
      5 C04          4.2650    -0.1840    -2.3200 c3         1 54U       0.105500
      6 C05          3.5400    -0.0010    -0.9820 c3         1 54U       0.145300
      7 N06          2.0890    -0.0010    -1.2120 nh         1 54U      -0.595000
      8 C07          1.6840     1.1330    -2.0540 c3         1 54U       0.145300
      9 C08          2.3330     1.0000    -3.4310 c3         1 54U       0.105500
     10 C09          1.3880     0.0000     0.0000 ca         1 54U       0.094600
     11 C11         -0.6900     0.0070     1.1960 ca         1 54U      -0.128000
     12 C12          0.0040     0.0130     2.3970 ca         1 54U       0.079100
     13 C14          2.0830     0.0000     1.2020 ca         1 54U      -0.154000
     14 O15         -0.6760     0.0190     3.5750 oh         1 54U      -0.520100
     15 O16          5.8460     1.4830    -3.7710 o          1 54U      -0.609100
     16 H1          -0.5420    -0.0040    -0.9380 ha         1 54U       0.139500
     17 H2           1.9310     0.0140     3.3360 ha         1 54U       0.141500
     18 H3           3.4630     2.2080    -5.5980 hc         1 54U       0.060700
     19 H4           4.9680     3.1190    -5.4160 hc         1 54U       0.060700
     20 H5           3.6080     3.4320    -4.3290 hc         1 54U       0.060700
     21 H6           4.0490    -1.1680    -2.7180 h1         1 54U       0.064200
     22 H7           3.7990    -0.8160    -0.3170 h1         1 54U       0.050950
     23 H8           0.6060     1.1330    -2.1640 h1         1 54U       0.050950
     24 H9           2.0060     2.0580    -1.5920 h1         1 54U       0.050950
     25 H10          2.1330     1.8910    -4.0140 h1         1 54U       0.064200
     26 H11          1.9330     0.1300    -3.9380 h1         1 54U       0.064200
     27 H12         -1.7740     0.0070     1.1960 ha         1 54U       0.141500
     28 H13          3.1660    -0.0000     1.2030 ha         1 54U       0.139500
     29 H14         -0.8330     0.9100     3.8420 ho         1 54U       0.415000
     30 H15          5.3330    -0.0710    -2.1720 h1         1 54U       0.064200
     31 H16          3.8350     0.9430    -0.5390 h1         1 54U       0.050950
     32 C02          4.6520     1.6220    -3.9320 c          1 54U       0.662100
@<TRIPOS>BOND
     1    11     1 ar
     2    11    12 ar
     3     1    10 ar
     4     8     9 1
     5     8     7 1
     6    14    12 1
     7    12     2 ar
     8     9     4 1
     9    10     7 1
    10    10    13 ar
    11     3    32 1
    12     7     6 1
    13     4    32 1
    14     4     5 1
    15    32    15 2
    16     2    13 ar
    17     6     5 1
    18     1    16 1
    19     2    17 1
    20     3    18 1
    21     3    19 1
    22     3    20 1
    23     5    21 1
    24     6    22 1
    25     8    23 1
    26     8    24 1
    27     9    25 1
    28     9    26 1
    29    11    27 1
    30    13    28 1
    31    14    29 1
    32     5    30 1
    33     6    31 1
@<TRIPOS>SUBSTRUCTURE
     1 54U         1 TEMP              0 ****  ****    0 ROOT
