@<TRIPOS>MOLECULE
54V
   38    39     1     0     0
SMALL
bcc


@<TRIPOS>ATOM
      1 N1           0.0000     0.0000     0.0000 n3         1 54V      -0.538600
      2 C4          -0.0160     1.1820     2.1440 c3         1 54V       0.155800
      3 C5          -0.5270    -0.0750    -1.3690 c3         1 54V       0.207100
      4 C6          -2.0130    -0.3200    -1.3240 ca         1 54V      -0.058300
      5 C7          -2.8860     0.7520    -1.2930 ca         1 54V      -0.110500
      6 C8          -4.2480     0.5360    -1.2500 ca         1 54V      -0.044000
      7 C10         -3.8570    -1.8470    -1.2690 ca         1 54V      -0.044000
      8 C13         -8.4720    -0.2770    -1.1050 c3         1 54V       0.270700
      9 O           -6.6300    -2.1450    -1.1690 o          1 54V      -0.590000
     10 O1          -7.0540     0.0330    -1.1550 os         1 54V      -0.416900
     11 C9          -4.7440    -0.7690    -1.2380 ca         1 54V      -0.152600
     12 C11         -2.4980    -1.6170    -1.3160 ca         1 54V      -0.110500
     13 C2           1.4690     0.0000     0.0000 c3         1 54V       0.145800
     14 C1           1.9780     0.0000     1.4440 c3         1 54V       0.155800
     15 C3          -0.5230     1.1810     0.7000 c3         1 54V       0.145800
     16 N            1.4540     1.1800     2.1440 n3         1 54V      -0.550600
     17 C            1.9800     1.2570     3.5140 c3         1 54V       0.189100
     18 H2          -0.3750     2.0680     2.6520 h1         1 54V       0.014450
     19 H3          -0.3770     0.2960     2.6530 h1         1 54V       0.014450
     20 H4          -0.3300     0.8570    -1.8840 h1         1 54V       0.014700
     21 H5          -0.0430    -0.8880    -1.8980 h1         1 54V       0.014700
     22 H6          -2.5000     1.7640    -1.3020 ha         1 54V       0.113000
     23 H7          -4.9310     1.3770    -1.2250 ha         1 54V       0.121000
     24 H8          -4.2370    -2.8620    -1.2610 ha         1 54V       0.121000
     25 H9          -8.7470    -0.8530    -1.9810 h1         1 54V       0.000700
     26 H10         -9.0420     0.6450    -1.0860 h1         1 54V       0.000700
     27 H11         -8.6840    -0.8520    -0.2130 h1         1 54V       0.000700
     28 H12         -1.8080    -2.4520    -1.3400 ha         1 54V       0.113000
     29 H13          1.8290    -0.8860    -0.5090 h1         1 54V       0.016950
     30 H14          1.8290     0.8860    -0.5090 h1         1 54V       0.016950
     31 H15          1.6380    -0.8980     1.9450 h1         1 54V       0.014450
     32 H16          3.0610     0.0320     1.4440 h1         1 54V       0.014450
     33 H17         -0.1820     2.0790     0.1990 h1         1 54V       0.016950
     34 H18         -1.6060     1.1510     0.7000 h1         1 54V       0.016950
     35 H20          1.6620     0.3850     4.0720 h1         1 54V       0.000367
     36 H21          1.6040     2.1520     3.9950 h1         1 54V       0.000367
     37 H22          3.0630     1.2920     3.4820 h1         1 54V       0.000367
     38 C12         -6.2010    -1.0080    -1.1850 c          1 54V       0.719700
@<TRIPOS>BOND
     1     1     3 1   
     2     1    13 1   
     3     1    15 1   
     4     2    15 1   
     5     2    16 1   
     6     2    18 1   
     7     2    19 1   
     8     3     4 1   
     9     3    20 1   
    10     3    21 1   
    11     4     5 ar  
    12     4    12 ar  
    13     5     6 ar  
    14     5    22 1   
    15     6    11 ar  
    16     6    23 1   
    17     7    11 ar  
    18     7    12 ar  
    19     7    24 1   
    20     8    10 1   
    21     8    25 1   
    22     8    26 1   
    23     8    27 1   
    24     9    38 2   
    25    10    38 1   
    26    11    38 1   
    27    12    28 1   
    28    13    14 1   
    29    13    29 1   
    30    13    30 1   
    31    14    16 1   
    32    14    31 1   
    33    14    32 1   
    34    15    33 1   
    35    15    34 1   
    36    16    17 1   
    37    17    35 1   
    38    17    36 1   
    39    17    37 1   
@<TRIPOS>SUBSTRUCTURE
     1 54V         1 TEMP              0 ****  ****    0 ROOT
