@<TRIPOS>MOLECULE
molecule
   38    39     1     0     0
SMALL
bcc


@<TRIPOS>ATOM
      1 N1           0.0000     0.0000     0.0000 n3         1 54V      -0.726600
      2 C4          -0.0160     1.1820     2.1440 c3         1 54V       0.164300
      3 C5          -0.5270    -0.0750    -1.3690 c3         1 54V       0.203100
      4 C6          -2.0130    -0.3200    -1.3240 ca         1 54V      -0.048300
      5 C7          -2.8860     0.7520    -1.2930 ca         1 54V      -0.136000
      6 C8          -4.2480     0.5360    -1.2500 ca         1 54V      -0.073000
      7 C10         -3.8570    -1.8470    -1.2690 ca         1 54V      -0.073000
      8 C13         -8.4720    -0.2770    -1.1050 c3         1 54V       0.140700
      9 O           -6.6300    -2.1450    -1.1690 o          1 54V      -0.552000
     10 O1          -7.0540     0.0330    -1.1550 os         1 54V      -0.429900
     11 C9          -4.7440    -0.7690    -1.2380 ca         1 54V      -0.135600
     12 C11         -2.4980    -1.6170    -1.3160 ca         1 54V      -0.136000
     13 C2           1.4690     0.0000     0.0000 c3         1 54V       0.160300
     14 C1           1.9780     0.0000     1.4440 c3         1 54V       0.164300
     15 C3          -0.5230     1.1810     0.7000 c3         1 54V       0.160300
     16 N            1.4540     1.1800     2.1440 n3         1 54V      -0.735600
     17 C            1.9800     1.2570     3.5140 c3         1 54V       0.153100
     18 H2          -0.3750     2.0680     2.6520 h1         1 54V       0.041450
     19 H3          -0.3770     0.2960     2.6530 h1         1 54V       0.041450
     20 H4          -0.3300     0.8570    -1.8840 h1         1 54V       0.043200
     21 H5          -0.0430    -0.8880    -1.8980 h1         1 54V       0.043200
     22 H6          -2.5000     1.7640    -1.3020 ha         1 54V       0.138500
     23 H7          -4.9310     1.3770    -1.2250 ha         1 54V       0.152000
     24 H8          -4.2370    -2.8620    -1.2610 ha         1 54V       0.152000
     25 H9          -8.7470    -0.8530    -1.9810 h1         1 54V       0.049367
     26 H10         -9.0420     0.6450    -1.0860 h1         1 54V       0.049367
     27 H11         -8.6840    -0.8520    -0.2130 h1         1 54V       0.049367
     28 H12         -1.8080    -2.4520    -1.3400 ha         1 54V       0.138500
     29 H13          1.8290    -0.8860    -0.5090 h1         1 54V       0.042700
     30 H14          1.8290     0.8860    -0.5090 h1         1 54V       0.042700
     31 H15          1.6380    -0.8980     1.9450 h1         1 54V       0.041450
     32 H16          3.0610     0.0320     1.4440 h1         1 54V       0.041450
     33 H17         -0.1820     2.0790     0.1990 h1         1 54V       0.042700
     34 H18         -1.6060     1.1510     0.7000 h1         1 54V       0.042700
     35 H20          1.6620     0.3850     4.0720 h1         1 54V       0.032367
     36 H21          1.6040     2.1520     3.9950 h1         1 54V       0.032367
     37 H22          3.0630     1.2920     3.4820 h1         1 54V       0.032367
     38 C12         -6.2010    -1.0080    -1.1850 c          1 54V       0.648700
@<TRIPOS>BOND
     1     8    10 1   
     2    10    38 1   
     3     7    12 ar  
     4     7    11 ar  
     5    12     4 ar  
     6    38    11 1   
     7    38     9 2   
     8    11     6 ar  
     9     4     3 1   
    10     4     5 ar  
    11     3     1 1   
    12     6     5 ar  
    13     1    13 1   
    14     1    15 1   
    15    13    14 1   
    16    15     2 1   
    17    14    16 1   
    18     2    16 1   
    19    16    17 1   
    20     2    18 1   
    21     2    19 1   
    22     3    20 1   
    23     3    21 1   
    24     5    22 1   
    25     6    23 1   
    26     7    24 1   
    27     8    25 1   
    28     8    26 1   
    29     8    27 1   
    30    12    28 1   
    31    13    29 1   
    32    13    30 1   
    33    14    31 1   
    34    14    32 1   
    35    15    33 1   
    36    15    34 1   
    37    17    35 1   
    38    17    36 1   
    39    17    37 1   
@<TRIPOS>SUBSTRUCTURE
     1 54V         1 TEMP              0 ****  ****    0 ROOT
