@<TRIPOS>MOLECULE
molecule
   25    25     1     0     0
SMALL
bcc


@<TRIPOS>ATOM
      1 C4           0.0000     0.0000     0.0000 ca         1 54W      -0.085300
      2 C5           1.3830     0.0000     0.0000 ca         1 54W      -0.121000
      3 C6           2.0740     0.0000     1.1970 ca         1 54W      -0.125000
      4 C7           1.3840     0.0020     2.3930 ca         1 54W      -0.127000
      5 C8           0.0010     0.0020     2.3950 ca         1 54W      -0.125000
      6 O           -1.7910     3.6440    -3.0830 o          1 54W      -0.608100
      7 C1          -2.0910     2.5900    -3.6060 c          1 54W       0.654100
      8 C           -2.8450     2.5830    -4.9100 c3         1 54W      -0.171100
      9 N           -1.7480     1.4270    -3.0180 ns         1 54W      -0.592900
     10 C2          -1.0160     1.4330    -1.7510 c3         1 54W       0.115000
     11 C3          -0.7540    -0.0070    -1.3040 c3         1 54W      -0.053100
     12 C9          -0.6910     0.0010     1.1980 ca         1 54W      -0.121000
     13 H1           1.9240    -0.0010    -0.9380 ha         1 54W       0.131000
     14 H2           3.1570    -0.0000     1.1960 ha         1 54W       0.131000
     15 H3           1.9260     0.0030     3.3310 ha         1 54W       0.130000
     16 H4          -0.5400     0.0030     3.3340 ha         1 54W       0.131000
     17 H5          -2.2580     2.0730    -5.6640 hc         1 54W       0.059700
     18 H6          -3.7900     2.0690    -4.7780 hc         1 54W       0.059700
     19 H7          -3.0310     3.6030    -5.2250 hc         1 54W       0.059700
     20 H8          -1.9950     0.5570    -3.4480 hn         1 54W       0.310500
     21 H9          -0.0710     1.9470    -1.8830 h1         1 54W       0.057700
     22 H10         -1.6020     1.9440    -0.9970 h1         1 54W       0.057700
     23 H11         -1.6990    -0.5210    -1.1720 hc         1 54W       0.050700
     24 H12         -0.1680    -0.5180    -2.0580 hc         1 54W       0.050700
     25 H13         -1.7740     0.0010     1.1980 ha         1 54W       0.131000
@<TRIPOS>BOND
     1     9    10 1   
     2     9     7 1   
     3     8     7 1   
     4    10    11 1   
     5     7     6 2   
     6     2     3 ar  
     7     2     1 ar  
     8     3     4 ar  
     9    11     1 1   
    10     1    12 ar  
    11     4     5 ar  
    12    12     5 ar  
    13     2    13 1   
    14     3    14 1   
    15     4    15 1   
    16     5    16 1   
    17     8    17 1   
    18     8    18 1   
    19     8    19 1   
    20     9    20 1   
    21    10    21 1   
    22    10    22 1   
    23    11    23 1   
    24    11    24 1   
    25    12    25 1   
@<TRIPOS>SUBSTRUCTURE
     1 54W         1 TEMP              0 ****  ****    0 ROOT
