@<TRIPOS>MOLECULE
molecule
   21    23     1     0     0
SMALL
bcc


@<TRIPOS>ATOM
      1 O15          0.0000     0.0000     0.0000 o          1 54X      -0.531100
      2 C3           1.2210     0.0000     0.0000 c          1 54X       0.726100
      3 N4           1.9040     0.0000     1.1570 nc         1 54X      -0.703100
      4 C5           3.2080    -0.0000     1.1760 cd         1 54X       0.683100
      5 N6           3.9460    -0.0010     0.0560 na         1 54X      -0.671600
      6 C1           3.3530    -0.0020    -1.1890 cd         1 54X       0.186500
      7 S7           4.0500    -0.0040    -2.8020 ss         1 54X      -0.132800
      8 C8           2.4690    -0.0030    -3.5620 cd         1 54X      -0.078100
      9 C9           1.4980    -0.0020    -2.6460 cc         1 54X       0.045000
     10 C2           1.9720    -0.0070    -1.2690 cc         1 54X      -0.236600
     11 C10          0.0630    -0.0020    -3.0010 cc         1 54X       0.011900
     12 C14         -0.5230     0.8410    -3.8750 cd         1 54X      -0.146000
     13 C13         -1.8800     0.6460    -4.0410 cd         1 54X      -0.164000
     14 C12         -2.4040    -0.3430    -3.3130 cc         1 54X      -0.084100
     15 S11         -1.1430    -1.1050    -2.3510 ss         1 54X      -0.061800
     16 H1           3.7150    -0.0000     2.1330 h5         1 54X       0.061800
     17 H2           4.9440    -0.0010     0.1250 hn         1 54X       0.451800
     18 H3           2.3030    -0.0040    -4.6320 h4         1 54X       0.187000
     19 H4           0.0270     1.6090    -4.4050 ha         1 54X       0.144000
     20 H5          -2.4760     1.2540    -4.7120 ha         1 54X       0.144000
     21 H6          -3.4470    -0.6350    -3.3180 h4         1 54X       0.168000
@<TRIPOS>BOND
     1     1     2 2
     2    14    15 1
     3    14    13 2
     4     2     3 1
     5     2    10 1
     6     3     4 2
     7    15    11 1
     8    13    12 1
     9    11    12 2
    10    11     9 1
    11     4     5 1
    12    10     9 1
    13    10     6 2
    14     9     8 2
    15     5     6 1
    16     6     7 1
    17     8     7 1
    18     4    16 1
    19     5    17 1
    20     8    18 1
    21    12    19 1
    22    13    20 1
    23    14    21 1
@<TRIPOS>SUBSTRUCTURE
     1 54X         1 TEMP              0 ****  ****    0 ROOT
