@<TRIPOS>MOLECULE
54X
   21    23     1     0     0
SMALL
bcc


@<TRIPOS>ATOM
      1 O15          0.0000     0.0000     0.0000 o          1 54X      -0.559100
      2 C3           1.2210     0.0000     0.0000 c          1 54X       0.723100
      3 N4           1.9040     0.0000     1.1570 nc         1 54X      -0.606100
      4 C5           3.2080    -0.0000     1.1760 cd         1 54X       0.488100
      5 N6           3.9460    -0.0010     0.0560 na         1 54X      -0.143600
      6 C1           3.3530    -0.0020    -1.1890 cc         1 54X       0.052500
      7 S7           4.0500    -0.0040    -2.8020 ss         1 54X      -0.244800
      8 C8           2.4690    -0.0030    -3.5620 cc         1 54X      -0.006100
      9 C9           1.4980    -0.0020    -2.6460 cd         1 54X       0.067000
     10 C2           1.9720    -0.0070    -1.2690 cd         1 54X      -0.223600
     11 C10          0.0630    -0.0020    -3.0010 cd         1 54X       0.071900
     12 C14         -0.5230     0.8410    -3.8750 cc         1 54X      -0.120000
     13 C13         -1.8800     0.6460    -4.0410 cc         1 54X      -0.137000
     14 C12         -2.4040    -0.3430    -3.3130 cd         1 54X       0.010900
     15 S11         -1.1430    -1.1050    -2.3510 ss         1 54X      -0.211800
     16 H1           3.7150    -0.0000     2.1330 h5         1 54X       0.007800
     17 H2           4.9440    -0.0010     0.1250 hn         1 54X       0.281800
     18 H3           2.3030    -0.0040    -4.6320 h4         1 54X       0.164000
     19 H4           0.0270     1.6090    -4.4050 ha         1 54X       0.119000
     20 H5          -2.4760     1.2540    -4.7120 ha         1 54X       0.118000
     21 H6          -3.4470    -0.6350    -3.3180 h4         1 54X       0.146000
@<TRIPOS>BOND
     1     1     2 2   
     2     2     3 1   
     3     2    10 1   
     4     3     4 2   
     5     4     5 1   
     6     4    16 1   
     7     5     6 1   
     8     5    17 1   
     9     6     7 1   
    10     6    10 2   
    11     7     8 1   
    12     8     9 2   
    13     8    18 1   
    14     9    10 1   
    15     9    11 1   
    16    11    12 2   
    17    11    15 1   
    18    12    13 1   
    19    12    19 1   
    20    13    14 2   
    21    13    20 1   
    22    14    15 1   
    23    14    21 1   
@<TRIPOS>SUBSTRUCTURE
     1 54X         1 TEMP              0 ****  ****    0 ROOT
