@<TRIPOS>MOLECULE
54Y
   19    19     1     0     0
SMALL
bcc


@<TRIPOS>ATOM
      1 N1           0.0000     0.0000     0.0000 nc         1 54Y      -0.646800
      2 C4           2.2570     0.0010    -1.1880 c3         1 54Y       0.014600
      3 C5           1.8250     0.0000     1.2750 cc         1 54Y      -0.154900
      4 O            1.7340     0.0010     4.1770 o          1 54Y      -0.657100
      5 C1           0.6880    -0.0000     3.5570 c          1 54Y       0.638700
      6 N           -0.4870     0.0000     4.2180 ns         1 54Y      -0.196900
      7 C           -0.5030    -0.0000     5.6830 c3         1 54Y       0.088300
      8 C2           0.7040     0.0000     2.0840 cd         1 54Y      -0.388900
      9 Cl           3.4770    -0.0000     1.8070 cl         1 54Y       0.093600
     10 N2           1.3990     0.0000     0.0000 na         1 54Y       0.510400
     11 C3          -0.4240     0.0000     1.2330 cd         1 54Y       0.420200
     12 H1           2.8810     0.8860    -1.1820 h1         1 54Y       0.027367
     13 H2           1.6400     0.0000    -2.0780 h1         1 54Y       0.027367
     14 H3           2.8830    -0.8830    -1.1820 h1         1 54Y       0.027367
     15 H4          -1.3480    -0.0260     3.7090 hn         1 54Y       0.169500
     16 H5           0.0060     0.8840     6.0500 h1         1 54Y       0.008367
     17 H6          -1.5280     0.0010     6.0340 h1         1 54Y       0.008367
     18 H7           0.0030    -0.8850     6.0500 h1         1 54Y       0.008367
     19 H8          -1.4600    -0.0000     1.5500 h4         1 54Y       0.003100
@<TRIPOS>BOND
     1     1    10 1   
     2     1    11 2   
     3     2    10 1   
     4     2    12 1   
     5     2    13 1   
     6     2    14 1   
     7     3     8 2   
     8     3     9 1   
     9     3    10 1   
    10     4     5 2   
    11     5     6 1   
    12     5     8 1   
    13     6     7 1   
    14     6    15 1   
    15     7    16 1   
    16     7    17 1   
    17     7    18 1   
    18     8    11 1   
    19    11    19 1   
@<TRIPOS>SUBSTRUCTURE
     1 54Y         1 TEMP              0 ****  ****    0 ROOT
