@<TRIPOS>MOLECULE
54Z
   22    22     1     0     0
SMALL
bcc


@<TRIPOS>ATOM
      1 C6           0.0000     0.0000     0.0000 ca         1 54Z      -0.076600
      2 C2           1.3840     0.0000     2.3970 ca         1 54Z      -0.018000
      3 C4           1.3880     0.0000     0.0000 ca         1 54Z       0.208100
      4 C5           3.4960    -0.0020    -1.1000 c3         1 54Z       0.762700
      5 C1           0.0020    -0.0040     2.3950 ca         1 54Z      -0.238300
      6 Cl          -0.8690    -0.0010    -1.5020 cl         1 54Z       0.081600
      7 O            2.0690    -0.0010    -1.1760 os         1 54Z      -0.298900
      8 F2           3.9260    -1.1430    -0.4160 f          1 54Z      -0.185300
      9 F1           4.0320    -0.0020    -2.3920 f          1 54Z      -0.185300
     10 F            3.9270     1.1410    -0.4160 f          1 54Z      -0.185300
     11 C3           2.0790     0.0000     1.2030 ca         1 54Z      -0.177000
     12 C7          -0.6900    -0.0050     1.1980 ca         1 54Z      -0.033000
     13 C           -0.7530    -0.0100     3.7000 c3         1 54Z       0.044100
     14 N           -1.0020     1.3740     4.1270 nz         1 54Z       0.072400
     15 H1           1.9240     0.0000     3.3370 ha         1 54Z       0.113000
     16 H2           3.1620     0.0020     1.2060 ha         1 54Z       0.155000
     17 H3          -1.7730    -0.0060     1.1990 ha         1 54Z       0.121000
     18 H4          -0.1650    -0.5200     4.4540 hx         1 54Z       0.082700
     19 H5          -1.6970    -0.5230     3.5690 hx         1 54Z       0.082700
     20 H6          -1.3780     1.8970     3.3600 hn         1 54Z       0.224467
     21 H7          -0.1430     1.7910     4.4260 hn         1 54Z       0.224467
     22 HN3         -1.6560     1.3760     4.8840 hn         1 54Z       0.224467
@<TRIPOS>BOND
     1     1     3 ar  
     2     1     6 1   
     3     1    12 ar  
     4     2     5 ar  
     5     2    11 ar  
     6     2    15 1   
     7     3     7 1   
     8     3    11 ar  
     9     4     7 1   
    10     4     8 1   
    11     4     9 1   
    12     4    10 1   
    13     5    12 ar  
    14     5    13 1   
    15    11    16 1   
    16    12    17 1   
    17    13    14 1   
    18    13    18 1   
    19    13    19 1   
    20    14    20 1   
    21    14    21 1   
    22    14    22 1   
@<TRIPOS>SUBSTRUCTURE
     1 54Z         1 TEMP              0 ****  ****    0 ROOT
