@<TRIPOS>MOLECULE
550
   55    58     1     0     0
SMALL
bcc


@<TRIPOS>ATOM
      1 O1           0.0000     0.0000     0.0000 o          1 550      -0.626100
      2 O2           1.1800     0.0000     2.3940 oh         1 550      -0.439100
      3 O3           1.0110     0.8020    -4.9270 os         1 550      -0.383900
      4 O4           2.7450     1.3510    -3.6730 o          1 550      -0.597000
      5 O5          -2.7180     0.0030    -7.5870 os         1 550      -0.308900
      6 C1           1.9660     0.0000    -1.3050 cx         1 550      -0.182700
      7 C2           1.1430     0.0010    -2.5950 cx         1 550      -0.150000
      8 C3           1.8900    -1.2630    -2.1650 cx         1 550      -0.027400
      9 C4           1.6920     0.7670    -3.7710 c          1 550       0.732100
     10 C5          -0.3810     0.0020    -2.4610 c3         1 550       0.068900
     11 C6           1.2130     0.0000     0.0000 c          1 550       0.609100
     12 N1           1.8870     0.0000     1.1660 ns         1 550      -0.045400
     13 C7           1.6000     1.5600    -6.0170 c3         1 550       0.248700
     14 C8          -1.0070     0.0020    -3.8320 ca         1 550      -0.130300
     15 C9          -1.2930    -1.1960    -4.4610 ca         1 550      -0.037500
     16 C10         -1.8660    -1.1980    -5.7180 ca         1 550      -0.180000
     17 C11         -2.1540     0.0030    -6.3500 ca         1 550       0.148100
     18 C12         -1.8660     1.2030    -5.7170 ca         1 550      -0.180000
     19 C13         -1.2970     1.2000    -4.4580 ca         1 550      -0.037500
     20 C14         -2.9870     1.2760    -8.1760 c3         1 550       0.260700
     21 C15         -3.6060     1.0800    -9.5360 ca         1 550      -0.062300
     22 C16         -3.8310    -0.1740   -10.0300 ca         1 550      -0.198300
     23 C17         -4.4040    -0.3320   -11.2890 ca         1 550       0.384600
     24 N2          -4.7410     0.6970   -12.0280 nb         1 550      -0.569000
     25 C18         -3.9740     2.1820   -10.3300 ca         1 550      -0.144300
     26 C19         -4.5470     1.9510   -11.6040 ca         1 550       0.379600
     27 C20         -4.9110     3.0500   -12.4000 ca         1 550      -0.137300
     28 C21         -4.7020     4.3150   -11.9430 ca         1 550      -0.097000
     29 C22         -4.1310     4.5400   -10.6910 ca         1 550      -0.094000
     30 C23         -3.7790     3.5000    -9.8860 ca         1 550      -0.095000
     31 C24         -4.6440    -1.7230   -11.8170 c3         1 550      -0.043400
     32 HO2          1.7940     0.0240     3.1100 ho         1 550       0.394000
     33 H1           2.9060     0.5340    -1.3670 hc         1 550       0.087700
     34 H3           2.7820    -1.4960    -2.7340 hc         1 550       0.055700
     35 H3A          1.2710    -2.0600    -1.7710 hc         1 550       0.055700
     36 H5          -0.6960     0.8860    -1.9200 hc         1 550       0.050200
     37 H5A         -0.6960    -0.8830    -1.9210 hc         1 550       0.050200
     38 HN1          2.8880     0.0110     1.1660 hn         1 550       0.157500
     39 H7           1.0910     1.3190    -6.9420 h1         1 550       0.003367
     40 H7A          2.6500     1.3070    -6.1060 h1         1 550       0.003367
     41 H7B          1.5000     2.6200    -5.8150 h1         1 550       0.003367
     42 H9          -1.0680    -2.1330    -3.9670 ha         1 550       0.104000
     43 H10         -2.0900    -2.1370    -6.2090 ha         1 550       0.115000
     44 H12         -2.0930     2.1430    -6.2060 ha         1 550       0.115000
     45 H13         -1.0720     2.1370    -3.9630 ha         1 550       0.104000
     46 H14         -2.0610     1.8300    -8.2780 h1         1 550       0.014200
     47 H14A        -3.6710     1.8290    -7.5440 h1         1 550       0.014200
     48 H16         -3.5630    -1.0440    -9.4430 ha         1 550       0.133000
     49 H20         -5.3550     2.8920   -13.3760 ha         1 550       0.117000
     50 H21         -4.9740     5.1590   -12.5650 ha         1 550       0.104000
     51 H22         -3.9760     5.5570   -10.3500 ha         1 550       0.102000
     52 H23         -3.3360     3.6880    -8.9150 ha         1 550       0.106000
     53 H24         -3.6930    -2.2160   -11.9780 hc         1 550       0.014367
     54 H24A        -5.1850    -1.6650   -12.7540 hc         1 550       0.014367
     55 H24B        -5.2260    -2.2860   -11.0980 hc         1 550       0.014367
@<TRIPOS>BOND
     1     1    11 2   
     2     2    12 1   
     3     2    32 1   
     4     3     9 1   
     5     3    13 1   
     6     4     9 2   
     7     5    17 1   
     8     5    20 1   
     9     6     7 1   
    10     6     8 1   
    11     6    11 1   
    12     6    33 1   
    13     7     8 1   
    14     7     9 1   
    15     7    10 1   
    16     8    34 1   
    17     8    35 1   
    18    10    14 1   
    19    10    36 1   
    20    10    37 1   
    21    11    12 1   
    22    12    38 1   
    23    13    39 1   
    24    13    40 1   
    25    13    41 1   
    26    14    15 ar  
    27    14    19 ar  
    28    15    16 ar  
    29    15    42 1   
    30    16    17 ar  
    31    16    43 1   
    32    17    18 ar  
    33    18    19 ar  
    34    18    44 1   
    35    19    45 1   
    36    20    21 1   
    37    20    46 1   
    38    20    47 1   
    39    21    22 ar  
    40    21    25 ar  
    41    22    23 ar  
    42    22    48 1   
    43    23    24 ar  
    44    23    31 1   
    45    24    26 ar  
    46    25    26 ar  
    47    25    30 ar  
    48    26    27 ar  
    49    27    28 ar  
    50    27    49 1   
    51    28    29 ar  
    52    28    50 1   
    53    29    30 ar  
    54    29    51 1   
    55    30    52 1   
    56    31    53 1   
    57    31    54 1   
    58    31    55 1   
@<TRIPOS>SUBSTRUCTURE
     1 550         1 TEMP              0 ****  ****    0 ROOT
