@<TRIPOS>MOLECULE
molecule
   49    50     1     0     0
SMALL
bcc


@<TRIPOS>ATOM
      1 C1           0.0000     0.0000     0.0000 c          1 551       0.623100
      2 O2           1.2200     0.0000     2.3430 o          1 551      -0.552100
      3 C3           2.0090     0.0000     1.4220 c          1 551       0.650100
      4 C5           5.3520    -0.0000     3.0500 c3         1 551      -0.102400
      5 C6           5.8600    -0.0000     4.4930 c3         1 551       0.159800
      6 C7           7.8560    -0.0010     5.8650 c3         1 551       0.205100
      7 C8           9.3620    -0.0010     5.8260 ca         1 551      -0.079300
      8 C9          10.0510    -1.2000     5.8020 ca         1 551      -0.104000
      9 C10         11.4300    -1.2070     5.7650 ca         1 551      -0.111000
     10 C11         12.1310    -0.0030     5.7520 cp         1 551      -0.025000
     11 C12         11.4310     1.2040     5.7760 ca         1 551       0.035400
     12 C14         13.6140    -0.0040     5.7130 cp         1 551      -0.048000
     13 C15         14.3360    -0.7870     6.6100 ca         1 551      -0.106500
     14 C17         16.3810    -0.0060     5.6400 ca         1 551      -0.121000
     15 C18         15.6690     0.7700     4.7430 ca         1 551      -0.131500
     16 C19         14.2890     0.7740     4.7750 ca         1 551      -0.106500
     17 Cl          12.2950     2.7090     5.7600 cl         1 551      -0.102400
     18 C16         15.7150    -0.7850     6.5700 ca         1 551      -0.131500
     19 C13         10.0500     1.1990     5.8080 ca         1 551      -0.119000
     20 N1           7.3300    -0.0010     4.4940 n7         1 551      -0.816200
     21 C4           3.8210    -0.0000     3.0500 c3         1 551       0.115000
     22 N            3.3330    -0.0000     1.6680 ns         1 551      -0.592900
     23 C2           1.5070     0.0000     0.0000 c3         1 551      -0.205400
     24 O1          -0.6050     0.0000     1.0460 o          1 551      -0.489000
     25 O           -0.6710     0.0060    -1.1630 os         1 551      -0.439900
     26 C           -2.1210     0.0120    -1.0880 c3         1 551       0.142700
     27 H1           5.7130     0.8840     2.5400 hc         1 551       0.053200
     28 H2           5.7130    -0.8850     2.5400 hc         1 551       0.053200
     29 H3           5.4990     0.8840     5.0040 h1         1 551       0.037200
     30 H4           5.4990    -0.8850     5.0030 h1         1 551       0.037200
     31 H5           7.5080     0.8840     6.3860 h1         1 551       0.041700
     32 H6           7.5080    -0.8850     6.3850 h1         1 551       0.041700
     33 H7           9.5060    -2.1370     5.8120 ha         1 551       0.141000
     34 H8          11.9680    -2.1470     5.7460 ha         1 551       0.143000
     35 H9          13.8150    -1.3970     7.3390 ha         1 551       0.136500
     36 H10         17.4640    -0.0070     5.6120 ha         1 551       0.129000
     37 H11         16.1940     1.3760     4.0160 ha         1 551       0.131000
     38 H12         13.7320     1.3820     4.0720 ha         1 551       0.136500
     39 H13         16.2770    -1.3920     7.2690 ha         1 551       0.131000
     40 H14          9.5060     2.1350     5.8270 ha         1 551       0.142000
     41 H15          7.6640     0.8080     4.0090 hn         1 551       0.356800
     42 H17          3.4600    -0.8840     3.5610 h1         1 551       0.055700
     43 H18          3.4600     0.8850     3.5600 h1         1 551       0.055700
     44 H19          3.9840    -0.0170     0.9080 hn         1 551       0.311500
     45 H20          1.8680     0.8840    -0.5110 hc         1 551       0.086700
     46 H21          1.8680    -0.8850    -0.5100 hc         1 551       0.086700
     47 H22         -2.4590    -0.8720    -0.5620 h1         1 551       0.049700
     48 H23         -2.4510     0.8970    -0.5570 h1         1 551       0.049700
     49 H24         -2.5340     0.0160    -2.0890 h1         1 551       0.049700
@<TRIPOS>BOND
     1    18    13 ar  
     2    18    14 ar  
     3    13    12 ar  
     4    14    15 ar  
     5     9     8 ar  
     6     9    10 ar  
     7    12    10 1   
     8    12    16 ar  
     9     8     7 ar  
    10    10    11 ar  
    11     7     6 1   
    12     7    19 ar  
    13    11    17 1   
    14    11    19 ar  
    15     6    20 1   
    16    15    16 ar  
    17     5    20 1   
    18     5     4 1   
    19    21     4 1   
    20    21    22 1   
    21    22     3 1   
    22     3     2 2   
    23     3    23 1   
    24    26    25 1   
    25    25     1 1   
    26    23     1 1   
    27     1    24 2   
    28     4    27 1   
    29     4    28 1   
    30     5    29 1   
    31     5    30 1   
    32     6    31 1   
    33     6    32 1   
    34     8    33 1   
    35     9    34 1   
    36    13    35 1   
    37    14    36 1   
    38    15    37 1   
    39    16    38 1   
    40    18    39 1   
    41    19    40 1   
    42    20    41 1   
    43    21    42 1   
    44    21    43 1   
    45    22    44 1   
    46    23    45 1   
    47    23    46 1   
    48    26    47 1   
    49    26    48 1   
    50    26    49 1   
@<TRIPOS>SUBSTRUCTURE
     1 551         1 TEMP              0 ****  ****    0 ROOT
