@<TRIPOS>MOLECULE
551
   49    50     1     0     0
SMALL
bcc


@<TRIPOS>ATOM
      1 C1           0.0000     0.0000     0.0000 c          1 551       0.676100
      2 O2           1.2200     0.0000     2.3430 o          1 551      -0.588100
      3 C3           2.0090     0.0000     1.4220 c          1 551       0.559100
      4 C5           5.3520    -0.0000     3.0500 c3         1 551      -0.043400
      5 C6           5.8600    -0.0000     4.4930 c3         1 551       0.148800
      6 C7           7.8560    -0.0010     5.8650 c3         1 551       0.204100
      7 C8           9.3620    -0.0010     5.8260 ca         1 551      -0.089300
      8 C9          10.0510    -1.2000     5.8020 ca         1 551      -0.076000
      9 C10         11.4300    -1.2070     5.7650 ca         1 551      -0.085000
     10 C11         12.1310    -0.0030     5.7520 cp         1 551      -0.023000
     11 C12         11.4310     1.2040     5.7760 ca         1 551      -0.028600
     12 C14         13.6140    -0.0040     5.7130 cp         1 551      -0.043000
     13 C15         14.3360    -0.7870     6.6100 ca         1 551      -0.089000
     14 C17         16.3810    -0.0060     5.6400 ca         1 551      -0.097000
     15 C18         15.6690     0.7700     4.7430 ca         1 551      -0.100500
     16 C19         14.2890     0.7740     4.7750 ca         1 551      -0.089000
     17 Cl          12.2950     2.7090     5.7600 cl         1 551      -0.018400
     18 C16         15.7150    -0.7850     6.5700 ca         1 551      -0.100500
     19 C13         10.0500     1.1990     5.8080 ca         1 551      -0.096000
     20 N1           7.3300    -0.0010     4.4940 n7         1 551      -0.584200
     21 C4           3.8210    -0.0000     3.0500 c3         1 551       0.055000
     22 N            3.3330    -0.0000     1.6680 ns         1 551      -0.209900
     23 C2           1.5070     0.0000     0.0000 c3         1 551      -0.139400
     24 O1          -0.6050     0.0000     1.0460 o          1 551      -0.521000
     25 O           -0.6710     0.0060    -1.1630 os         1 551      -0.428900
     26 C           -2.1210     0.0120    -1.0880 c3         1 551       0.272700
     27 H1           5.7130     0.8840     2.5400 hc         1 551       0.021700
     28 H2           5.7130    -0.8850     2.5400 hc         1 551       0.021700
     29 H3           5.4990     0.8840     5.0040 h1         1 551       0.010700
     30 H4           5.4990    -0.8850     5.0030 h1         1 551       0.010700
     31 H5           7.5080     0.8840     6.3860 h1         1 551       0.012200
     32 H6           7.5080    -0.8850     6.3850 h1         1 551       0.012200
     33 H7           9.5060    -2.1370     5.8120 ha         1 551       0.112000
     34 H8          11.9680    -2.1470     5.7460 ha         1 551       0.113000
     35 H9          13.8150    -1.3970     7.3390 ha         1 551       0.111000
     36 H10         17.4640    -0.0070     5.6120 ha         1 551       0.102000
     37 H11         16.1940     1.3760     4.0160 ha         1 551       0.103000
     38 H12         13.7320     1.3820     4.0720 ha         1 551       0.111000
     39 H13         16.2770    -1.3920     7.2690 ha         1 551       0.103000
     40 H14          9.5060     2.1350     5.8270 ha         1 551       0.115000
     41 H15          7.6640     0.8080     4.0090 hn         1 551       0.255800
     42 H17          3.4600    -0.8840     3.5610 h1         1 551       0.027700
     43 H18          3.4600     0.8850     3.5600 h1         1 551       0.027700
     44 H19          3.9840    -0.0170     0.9080 hn         1 551       0.171500
     45 H20          1.8680     0.8840    -0.5110 hc         1 551       0.044700
     46 H21          1.8680    -0.8850    -0.5100 hc         1 551       0.044700
     47 H22         -2.4590    -0.8720    -0.5620 h1         1 551       0.001033
     48 H23         -2.4510     0.8970    -0.5570 h1         1 551       0.001033
     49 H24         -2.5340     0.0160    -2.0890 h1         1 551       0.001033
@<TRIPOS>BOND
     1     1    23 1   
     2     1    24 2   
     3     1    25 1   
     4     2     3 2   
     5     3    22 1   
     6     3    23 1   
     7     4     5 1   
     8     4    21 1   
     9     4    27 1   
    10     4    28 1   
    11     5    20 1   
    12     5    29 1   
    13     5    30 1   
    14     6     7 1   
    15     6    20 1   
    16     6    31 1   
    17     6    32 1   
    18     7     8 ar  
    19     7    19 ar  
    20     8     9 ar  
    21     8    33 1   
    22     9    10 ar  
    23     9    34 1   
    24    10    11 ar  
    25    10    12 1   
    26    11    17 1   
    27    11    19 ar  
    28    12    13 ar  
    29    12    16 ar  
    30    13    18 ar  
    31    13    35 1   
    32    14    15 ar  
    33    14    18 ar  
    34    14    36 1   
    35    15    16 ar  
    36    15    37 1   
    37    16    38 1   
    38    18    39 1   
    39    19    40 1   
    40    20    41 1   
    41    21    22 1   
    42    21    42 1   
    43    21    43 1   
    44    22    44 1   
    45    23    45 1   
    46    23    46 1   
    47    25    26 1   
    48    26    47 1   
    49    26    48 1   
    50    26    49 1   
@<TRIPOS>SUBSTRUCTURE
     1 551         1 TEMP              0 ****  ****    0 ROOT
