@<TRIPOS>MOLECULE
molecule
   44    47     1     0     0
SMALL
bcc


@<TRIPOS>ATOM
      1 Cl11         0.0000     0.0000     0.0000 cl         1 552      -0.059400
      2 C10          1.7360     0.0000     0.0000 cc         1 552       0.204000
      3 N09          2.3940     0.0000     1.1550 nc         1 552      -0.637300
      4 C12          2.4210    -0.0070    -1.2030 cd         1 552      -0.020400
      5 N23          3.7940    -0.0080    -1.1920 n          1 552      -0.300000
      6 C15          4.2420    -0.0160    -2.5870 c3         1 552       0.067900
      7 C16          5.0570     1.2180    -2.8790 c          1 552       0.684100
      8 N18          5.9860     1.1980    -3.8550 n          1 552      -0.490800
      9 C22          6.2340     0.0810    -4.7780 c3         1 552       0.099500
     10 C21          7.4010     0.4980    -5.6980 c3         1 552      -0.096400
     11 C20          8.1170     1.6000    -4.8740 c3         1 552      -0.096400
     12 C19          6.9170     2.2940    -4.1780 c3         1 552       0.099500
     13 O17          4.8760     2.2300    -2.2340 o          1 552      -0.576100
     14 C14          2.9850    -0.0190    -3.4250 c2         1 552      -0.174200
     15 C13          1.9500    -0.0150    -2.5910 cf         1 552      -0.087000
     16 C24          4.4530    -0.0020    -0.0180 c          1 552       0.593200
     17 O25          5.6720    -0.0020     0.0080 o          1 552      -0.597500
     18 C08          3.7070    -0.0010     1.1920 cd         1 552       0.596600
     19 O07          4.3530     0.0060     2.3850 os         1 552      -0.358400
     20 C06          3.5400     0.0060     3.5620 c3         1 552       0.193700
     21 C05          4.4240     0.0130     4.7820 ca         1 552      -0.116300
     22 C04          4.8380    -1.1820     5.3420 ca         1 552      -0.074000
     23 C03          5.6490    -1.1760     6.4610 ca         1 552      -0.172500
     24 C26          4.8250     1.2140     5.3370 ca         1 552      -0.074000
     25 C27          5.6360     1.2220     6.4570 ca         1 552      -0.172500
     26 C02          6.0460     0.0260     7.0220 ca         1 552       0.145900
     27 F01          6.8380     0.0330     8.1160 f          1 552      -0.139900
     28 H15          4.8230    -0.9090    -2.7860 h1         1 552       0.095700
     29 H22          6.5070    -0.8050    -4.2170 h1         1 552       0.050450
     30 H22A         5.3480    -0.1100    -5.3710 h1         1 552       0.050450
     31 H21          7.0260     0.9010    -6.6300 hc         1 552       0.058450
     32 H21A         8.0660    -0.3400    -5.8740 hc         1 552       0.058450
     33 H20          8.7860     1.1620    -4.1430 hc         1 552       0.058450
     34 H20A         8.6380     2.2910    -5.5250 hc         1 552       0.058450
     35 H19          7.2430     2.7900    -3.2720 h1         1 552       0.050450
     36 H19A         6.4470     2.9990    -4.8540 h1         1 552       0.050450
     37 H14          2.9430    -0.6020    -4.3370 ha         1 552       0.167000
     38 H13          1.0420    -0.5450    -2.8520 ha         1 552       0.165000
     39 H06          2.9110     0.8880     3.5660 h1         1 552       0.058700
     40 H06A         2.9190    -0.8810     3.5710 h1         1 552       0.058700
     41 H04          4.5270    -2.1220     4.9030 ha         1 552       0.141500
     42 H03          5.9720    -2.1120     6.9010 ha         1 552       0.147500
     43 H26          4.5040     2.1490     4.8950 ha         1 552       0.141500
     44 H27          5.9480     2.1630     6.8930 ha         1 552       0.147500
@<TRIPOS>BOND
     1     2     1 1   
     2     4     2 2   
     3     3     2 1   
     4    18     3 2   
     5     5     4 1   
     6    15     4 1   
     7     6     5 1   
     8    16     5 1   
     9     7     6 1   
    10     6    14 1   
    11     6    28 1   
    12     8     7 1   
    13     7    13 2   
    14     9     8 1   
    15    12     8 1   
    16    10     9 1   
    17     9    29 1   
    18     9    30 1   
    19    10    11 1   
    20    10    31 1   
    21    10    32 1   
    22    11    12 1   
    23    11    33 1   
    24    11    34 1   
    25    12    35 1   
    26    12    36 1   
    27    14    15 2   
    28    14    37 1   
    29    15    38 1   
    30    17    16 2   
    31    16    18 1   
    32    19    18 1   
    33    19    20 1   
    34    20    21 1   
    35    20    39 1   
    36    20    40 1   
    37    22    21 ar  
    38    21    24 ar  
    39    22    23 ar  
    40    22    41 1   
    41    23    26 ar  
    42    23    42 1   
    43    24    25 ar  
    44    24    43 1   
    45    26    25 ar  
    46    25    44 1   
    47    26    27 1   
@<TRIPOS>SUBSTRUCTURE
     1 552         1 TEMP              0 ****  ****    0 ROOT
