@<TRIPOS>MOLECULE
molecule
   34    36     1     0     0
SMALL
bcc


@<TRIPOS>ATOM
      1 O19          0.0000     0.0000     0.0000 o          1 553      -0.629500
      2 C15          1.2160     0.0000     0.0000 c          1 553       0.751100
      3 N14          1.9270     0.0000     1.1520 ns         1 553      -0.596900
      4 C13          3.3720     0.1730     1.1840 c3         1 553       0.122000
      5 C12          4.0840    -0.5520     0.0420 c3         1 553      -0.018400
      6 C16          5.5280    -0.0540    -0.0610 c3         1 553      -0.118400
      7 C17          6.2940    -0.4440     1.2040 c3         1 553       0.162900
      8 F18          7.6130     0.0110     1.1100 f          1 553      -0.245300
      9 C11          3.3570    -0.2630    -1.2460 cc         1 553      -0.078600
     10 N8           3.7980    -0.2010    -2.5020 na         1 553      -0.115100
     11 C10          1.9900    -0.0050    -1.2530 cd         1 553      -0.241600
     12 C9           1.6140     0.2190    -2.5830 cd         1 553      -0.050000
     13 C7           2.7430     0.1030    -3.3380 cc         1 553      -0.227800
     14 C5           2.8230     0.2620    -4.8040 ca         1 553       0.568800
     15 C6           4.0440     0.1050    -5.4720 ca         1 553      -0.408600
     16 C1           4.0680     0.2630    -6.8440 ca         1 553       0.477200
     17 N4           1.7310     0.5510    -5.5140 nb         1 553      -0.742000
     18 C3           1.8010     0.6930    -6.8280 ca         1 553       0.945900
     19 N2           2.9450     0.5550    -7.4830 nb         1 553      -0.755000
     20 N20          0.6500     0.9930    -7.5360 nv         1 553      -1.059500
     21 HN14         1.4390    -0.1240     2.0170 hn         1 553       0.326500
     22 H13          3.7310    -0.2530     2.1130 h1         1 553       0.051700
     23 H13A         3.5760     1.2320     1.0740 h1         1 553       0.051700
     24 H12          4.0750    -1.6190     0.2300 hc         1 553       0.075700
     25 H16          5.5310     1.0240    -0.1670 hc         1 553       0.060700
     26 H16A         6.0040    -0.5030    -0.9240 hc         1 553       0.060700
     27 H17          6.2910    -1.5220     1.3090 h1         1 553       0.046700
     28 H17A         5.8180     0.0050     2.0670 h1         1 553       0.046700
     29 H9           0.6190     0.4520    -2.9410 ha         1 553       0.186000
     30 H6           4.9480    -0.1350    -4.9250 ha         1 553       0.132000
     31 H1           4.9960     0.1500    -7.3910 h4         1 553       0.028100
     32 HN20         0.3930     1.9480    -7.6910 hn         1 553       0.446800
     33 HN2A         0.0750     0.2560    -7.8910 hn         1 553       0.446800
     34 HN8          4.7450    -0.3420    -2.7910 hn         1 553       0.298700
@<TRIPOS>BOND
     1     2     1 2   
     2     3     2 1   
     3     2    11 1   
     4     4     3 1   
     5     3    21 1   
     6     4     5 1   
     7     4    22 1   
     8     4    23 1   
     9     5     6 1   
    10     5     9 1   
    11     5    24 1   
    12     7     6 1   
    13     6    25 1   
    14     6    26 1   
    15     8     7 1   
    16     7    27 1   
    17     7    28 1   
    18     9    11 2   
    19     9    10 1   
    20    10    13 1   
    21    11    12 1   
    22    12    13 2   
    23    12    29 1   
    24    13    14 1   
    25    17    14 ar  
    26    14    15 ar  
    27    15    16 ar  
    28    15    30 1   
    29    19    16 ar  
    30    16    31 1   
    31    17    18 ar  
    32    20    18 1   
    33    18    19 ar  
    34    20    32 1   
    35    20    33 1   
    36    10    34 1   
@<TRIPOS>SUBSTRUCTURE
     1 553         1 TEMP              0 ****  ****    0 ROOT
