@<TRIPOS>MOLECULE
553
   34    36     1     0     0
SMALL
bcc


@<TRIPOS>ATOM
      1 O19          0.0000     0.0000     0.0000 o          1 553      -0.671500
      2 C15          1.2160     0.0000     0.0000 c          1 553       0.686100
      3 N14          1.9270     0.0000     1.1520 ns         1 553      -0.213900
      4 C13          3.3720     0.1730     1.1840 c3         1 553       0.055000
      5 C12          4.0840    -0.5520     0.0420 c3         1 553       0.045600
      6 C16          5.5280    -0.0540    -0.0610 c3         1 553      -0.068400
      7 C17          6.2940    -0.4440     1.2040 c3         1 553       0.208900
      8 F18          7.6130     0.0110     1.1100 f          1 553      -0.229300
      9 C11          3.3570    -0.2630    -1.2460 cc         1 553      -0.315600
     10 N8           3.7980    -0.2010    -2.5020 na         1 553       0.485900
     11 C10          1.9900    -0.0050    -1.2530 cd         1 553      -0.248600
     12 C9           1.6140     0.2190    -2.5830 cd         1 553      -0.005000
     13 C7           2.7430     0.1030    -3.3380 cc         1 553      -0.448800
     14 C5           2.8230     0.2620    -4.8040 ca         1 553       0.538800
     15 C6           4.0440     0.1050    -5.4720 ca         1 553      -0.383600
     16 C1           4.0680     0.2630    -6.8440 ca         1 553       0.462200
     17 N4           1.7310     0.5510    -5.5140 nb         1 553      -0.618000
     18 C3           1.8010     0.6930    -6.8280 ca         1 553       0.726900
     19 N2           2.9450     0.5550    -7.4830 nb         1 553      -0.642000
     20 N20          0.6500     0.9930    -7.5360 nv         1 553      -0.639500
     21 HN14         1.4390    -0.1240     2.0170 hn         1 553       0.182500
     22 H13          3.7310    -0.2530     2.1130 h1         1 553       0.022200
     23 H13A         3.5760     1.2320     1.0740 h1         1 553       0.022200
     24 H12          4.0750    -1.6190     0.2300 hc         1 553       0.040700
     25 H16          5.5310     1.0240    -0.1670 hc         1 553       0.029700
     26 H16A         6.0040    -0.5030    -0.9240 hc         1 553       0.029700
     27 H17          6.2910    -1.5220     1.3090 h1         1 553       0.014700
     28 H17A         5.8180     0.0050     2.0670 h1         1 553       0.014700
     29 H9           0.6190     0.4520    -2.9410 ha         1 553       0.152000
     30 H6           4.9480    -0.1350    -4.9250 ha         1 553       0.113000
     31 H1           4.9960     0.1500    -7.3910 h4         1 553      -0.017900
     32 HN20         0.3930     1.9480    -7.6910 hn         1 553       0.281800
     33 HN2A         0.0750     0.2560    -7.8910 hn         1 553       0.281800
     34 HN8          4.7450    -0.3420    -2.7910 hn         1 553       0.107700
@<TRIPOS>BOND
     1     1     2 2   
     2     2     3 1   
     3     2    11 1   
     4     3     4 1   
     5     3    21 1   
     6     4     5 1   
     7     4    22 1   
     8     4    23 1   
     9     5     6 1   
    10     5     9 1   
    11     5    24 1   
    12     6     7 1   
    13     6    25 1   
    14     6    26 1   
    15     7     8 1   
    16     7    27 1   
    17     7    28 1   
    18     9    10 1   
    19     9    11 2   
    20    10    13 1   
    21    10    34 1   
    22    11    12 1   
    23    12    13 2   
    24    12    29 1   
    25    13    14 1   
    26    14    15 ar  
    27    14    17 ar  
    28    15    16 ar  
    29    15    30 1   
    30    16    19 ar  
    31    16    31 1   
    32    17    18 ar  
    33    18    19 ar  
    34    18    20 1   
    35    20    32 1   
    36    20    33 1   
@<TRIPOS>SUBSTRUCTURE
     1 553         1 TEMP              0 ****  ****    0 ROOT
