@<TRIPOS>MOLECULE
molecule
   33    35     1     0     0
SMALL
bcc


@<TRIPOS>ATOM
      1 C1           0.0000     0.0000     0.0000 ca         1 555      -0.117000
      2 C2           1.3920     0.0000     0.0000 ca         1 555      -0.129000
      3 C3           2.0910     0.0000     1.2080 ca         1 555      -0.110000
      4 C4           1.4040     0.0010     2.4330 ca         1 555      -0.025000
      5 C5          -0.0120     0.0000     2.4330 ca         1 555      -0.007000
      6 C6          -0.6980     0.0010     1.2080 ca         1 555      -0.127000
      7 C7          -0.6990     0.0010     3.6580 ca         1 555      -0.135900
      8 C8           0.0000     0.0010     4.8650 ca         1 555      -0.088000
      9 C9           1.3920     0.0010     4.8660 ca         1 555      -0.124000
     10 C10          2.0900     0.0010     3.6580 cp         1 555      -0.019000
     11 C11          3.5420    -0.0010     3.7370 cp         1 555      -0.060000
     12 C12          4.2290    -1.2100     3.7740 ca         1 555      -0.100500
     13 C13          5.6220    -1.2130     3.8500 ca         1 555      -0.155000
     14 C14          6.3210    -0.0060     3.8880 ca         1 555       0.106100
     15 C15          5.6260     1.2030     3.8500 ca         1 555      -0.155000
     16 C16          4.2330     1.2060     3.7740 ca         1 555      -0.100500
     17 O1           7.6790    -0.0080     3.9620 oh         1 555      -0.521100
     18 C17         -2.1560     0.0010     3.7390 ce         1 555       0.418800
     19 N1          -2.8060     0.5470     4.7230 n2         1 555      -0.413200
     20 O2          -4.1770     0.3810     4.5140 oh         1 555      -0.402500
     21 H1          -0.5410    -0.0000    -0.9380 ha         1 555       0.134000
     22 H2           1.9340    -0.0010    -0.9380 ha         1 555       0.133000
     23 H3           3.1740    -0.0000     1.2010 ha         1 555       0.140000
     24 H6          -1.7810     0.0010     1.2000 ha         1 555       0.135000
     25 H8          -0.5410     0.0020     5.8040 ha         1 555       0.150000
     26 H9           1.9330     0.0010     5.8050 ha         1 555       0.143000
     27 H12          3.6840    -2.1460     3.7450 ha         1 555       0.142500
     28 H13          6.1610    -2.1520     3.8790 ha         1 555       0.143000
     29 H15          6.1680     2.1400     3.8800 ha         1 555       0.143000
     30 H16          3.6930     2.1440     3.7450 ha         1 555       0.142500
     31 HO1          8.0410    -0.0090     3.0910 ho         1 555       0.420000
     32 H17         -2.7160    -0.4760     2.9430 h4         1 555       0.010800
     33 HO2         -4.6540     0.7950     5.2150 ho         1 555       0.427000
@<TRIPOS>BOND
     1     1     6 ar
     2     1     2 ar
     3     1    21 1
     4     2     3 ar
     5     2    22 1
     6     3     4 ar
     7     3    23 1
     8     4     5 ar
     9     4    10 ar
    10     5     6 ar
    11     5     7 ar
    12     6    24 1
    13     7    18 1
    14     7     8 ar
    15     8     9 ar
    16     8    25 1
    17     9    10 ar
    18     9    26 1
    19    10    11 1
    20    11    16 ar
    21    11    12 ar
    22    12    13 ar
    23    12    27 1
    24    13    14 ar
    25    13    28 1
    26    14    15 ar
    27    14    17 1
    28    15    16 ar
    29    15    29 1
    30    16    30 1
    31    17    31 1
    32    18    19 2
    33    18    32 1
    34    19    20 1
    35    20    33 1
@<TRIPOS>SUBSTRUCTURE
     1 555         1 TEMP              0 ****  ****    0 ROOT
