@<TRIPOS>MOLECULE
555
   33    36     1     0     0
SMALL
bcc


@<TRIPOS>ATOM
      1 C1           0.0000     0.0000     0.0000 ca         1 555      -0.091000
      2 C2           1.3920     0.0000     0.0000 ca         1 555      -0.094000
      3 C3           2.0910     0.0000     1.2080 ca         1 555      -0.093000
      4 C4           1.4040     0.0010     2.4330 ca         1 555      -0.033000
      5 C5          -0.0120     0.0000     2.4330 ca         1 555      -0.004000
      6 C6          -0.6980     0.0010     1.2080 ca         1 555      -0.083000
      7 C7          -0.6990     0.0010     3.6580 c3         1 555      -0.065000
      8 C8           0.0000     0.0010     4.8650 c2         1 555      -0.082000
      9 C9           1.3920     0.0010     4.8660 c2         1 555      -0.113000
     10 C10          2.0900     0.0010     3.6580 c2         1 555       0.020000
     11 C11          3.5420    -0.0010     3.7370 ca         1 555      -0.074000
     12 C12          4.2290    -1.2100     3.7740 ca         1 555      -0.064500
     13 C13          5.6220    -1.2130     3.8500 ca         1 555      -0.138500
     14 C14          6.3210    -0.0060     3.8880 ca         1 555       0.082000
     15 C15          5.6260     1.2030     3.8500 ca         1 555      -0.138500
     16 C16          4.2330     1.2060     3.7740 ca         1 555      -0.064500
     17 O1           7.6790    -0.0080     3.9620 oh         1 555      -0.253000
     18 C17         -2.1560     0.0010     3.7390 c2         1 555      -0.481000
     19 N1          -2.8060     0.5470     4.7230 n2         1 555       0.091000
     20 O2          -4.1770     0.3810     4.5140 oh         1 555      -0.214000
     21 H1          -0.5410    -0.0000    -0.9380 ha         1 555       0.107000
     22 H2           1.9340    -0.0010    -0.9380 ha         1 555       0.105000
     23 H3           3.1740    -0.0000     1.2010 ha         1 555       0.114000
     24 H6          -1.7810     0.0010     1.2000 ha         1 555       0.141000
     25 H8          -0.5410     0.0020     5.8040 ha         1 555       0.123000
     26 H9           1.9330     0.0010     5.8050 ha         1 555       0.118000
     27 H12          3.6840    -2.1460     3.7450 ha         1 555       0.112000
     28 H13          6.1610    -2.1520     3.8790 ha         1 555       0.116500
     29 H15          6.1680     2.1400     3.8800 ha         1 555       0.116500
     30 H16          3.6930     2.1440     3.7450 ha         1 555       0.112000
     31 HO1          8.0410    -0.0090     3.0910 ho         1 555       0.203000
     32 H17         -1.5540     0.8820     3.5540 DU         1 555       0.337000
     33 HO2         -4.6530     0.7660     5.2320 ho         1 555       0.189000
@<TRIPOS>BOND
     1     1     2 1   
     2     1     6 1   
     3     1    21 1   
     4     2     3 1   
     5     2    22 1   
     6     3     4 1   
     7     3    23 1   
     8     4     5 1   
     9     4    10 1   
    10     5     6 1   
    11     5     7 1   
    12     6    24 1   
    13     7     8 1   
    14     7    18 1   
    15     7    32 1   
    16     8     9 1   
    17     8    25 1   
    18     9    10 1   
    19     9    26 1   
    20    10    11 1   
    21    11    12 1   
    22    11    16 1   
    23    12    13 1   
    24    12    27 1   
    25    13    14 1   
    26    13    28 1   
    27    14    15 1   
    28    14    17 1   
    29    15    16 1   
    30    15    29 1   
    31    16    30 1   
    32    17    31 1   
    33    18    19 1   
    34    18    32 1   
    35    19    20 1   
    36    20    33 1   
@<TRIPOS>SUBSTRUCTURE
     1 555         1 TEMP              0 ****  ****    0 ROOT
