@<TRIPOS>MOLECULE
molecule
   23    25     1     0     0
SMALL
bcc


@<TRIPOS>ATOM
      1 CAF          0.0000     0.0000     0.0000 c3         1 556      -0.098700
      2 CAE          1.5450     0.0000     0.0000 c3         1 556      -0.101400
      3 CAG          1.8640     0.0000     1.5110 c3         1 556       0.041300
      4 NAM          0.6980     0.6160     2.1600 na         1 556      -0.209900
      5 CAK         -0.3730     0.6280     1.3280 cc         1 556       0.394800
      6 NAH         -1.3840     1.1800     1.9520 nd         1 556      -0.681000
      7 CAD         -1.0100     1.5440     3.1830 cc         1 556       0.344200
      8 CAL          0.2980     1.2020     3.3430 cd         1 556      -0.136600
      9 CAJ          1.1240     1.4150     4.5450 cd         1 556       0.060900
     10 SAI          2.8450     1.0710     4.6690 ss         1 556      -0.175800
     11 CAB          2.8670     1.6190     6.3390 cd         1 556      -0.073100
     12 CAA          1.6430     2.0140     6.7020 cc         1 556      -0.147000
     13 CAC          0.6790     1.9090     5.7200 cc         1 556      -0.152000
     14 H1          -0.3770    -1.0140    -0.0580 hc         1 556       0.071200
     15 H2          -0.3770     0.5990    -0.8200 hc         1 556       0.071200
     16 H3           1.9060     0.9190    -0.4450 hc         1 556       0.068700
     17 H4           1.9060    -0.9190    -0.4450 hc         1 556       0.068700
     18 H5           2.7320     0.6240     1.6860 h1         1 556       0.067200
     19 H6           1.9520    -1.0250     1.8500 h1         1 556       0.067200
     20 H7          -1.6280     2.0580     3.9100 h4         1 556       0.047100
     21 H8           3.7410     1.6340     6.9780 h4         1 556       0.171000
     22 H9           1.4240     2.3930     7.6930 ha         1 556       0.150000
     23 H10         -0.3530     2.1950     5.8810 ha         1 556       0.153000
@<TRIPOS>BOND
     1     2     3 1
     2     2     1 1
     3     3     4 1
     4     1     5 1
     5     4     5 1
     6     4     8 1
     7    13    12 1
     8    13     9 2
     9     5     6 2
    10    12    11 2
    11     8     9 1
    12     8     7 2
    13     9    10 1
    14     6     7 1
    15    11    10 1
    16     1    14 1
    17     1    15 1
    18     2    16 1
    19     2    17 1
    20     3    18 1
    21     3    19 1
    22     7    20 1
    23    11    21 1
    24    12    22 1
    25    13    23 1
@<TRIPOS>SUBSTRUCTURE
     1 556         1 TEMP              0 ****  ****    0 ROOT
