@<TRIPOS>MOLECULE
556
   23    25     1     0     0
SMALL
bcc


@<TRIPOS>ATOM
      1 CAF        -0.0040    0.1280   -0.0430 c3        1 556     -0.102700
      2 CAE         1.5010   -0.1870    0.0890 c3        1 556     -0.095400
      3 CAG         1.9350    0.1920    1.5340 c3        1 556      0.041300
      4 NAM         0.7410    0.6880    2.1650 na        1 556     -0.219900
      5 CAK        -0.3820    0.6660    1.2980 cc        1 556      0.387800
      6 NAH        -1.4910    1.1340    1.9090 nd        1 556     -0.643000
      7 CAD        -1.0790    1.4660    3.1970 cd        1 556      0.308200
      8 CAL         0.3080    1.1990    3.3870 cc        1 556     -0.106600
      9 CAJ         1.1030    1.3990    4.5550 cc        1 556     -0.020100
     10 SAI         2.7540    1.0460    4.6660 ss        1 556     -0.008800
     11 CAB         2.8700    1.5470    6.2550 cc        1 556     -0.164100
     12 CAA         1.6610    1.9940    6.7400 cd        1 556     -0.148000
     13 CAC         0.6310    1.9100    5.7550 cd        1 556     -0.147000
     14 H1         -0.5940   -0.7920   -0.2800 hc        1 556      0.074700
     15 H2         -0.1930    0.8880   -0.8410 hc        1 556      0.074700
     16 H3          2.0920    0.4040   -0.6500 hc        1 556      0.059700
     17 H4          1.6920   -1.2710   -0.0900 hc        1 556      0.059700
     18 H5          2.7320    0.9850    1.5220 h1        1 556      0.060700
     19 H6          2.3290   -0.7050    2.0860 h1        1 556      0.060700
     20 H7         -1.7730    1.8760    3.9290 h4        1 556      0.043100
     21 H8          3.8040    1.5120    6.8120 h4        1 556      0.172000
     22 H9          1.4880    2.3700    7.7500 ha        1 556      0.156000
     23 H10        -0.4020    2.2140    5.9370 ha        1 556      0.159000
@<TRIPOS>BOND
     1    1    2 1   
     2    1    5 1   
     3    1   14 1   
     4    1   15 1   
     5    2    3 1   
     6    2   16 1   
     7    2   17 1   
     8    3    4 1   
     9    3   18 1   
    10    3   19 1   
    11    4    5 1   
    12    4    8 1   
    13    5    6 2   
    14    6    7 1   
    15    7    8 2   
    16    7   20 1   
    17    8    9 1   
    18    9   10 1   
    19    9   13 2   
    20   10   11 1   
    21   11   12 2   
    22   11   21 1   
    23   12   13 1   
    24   12   22 1   
    25   13   23 1   
@<TRIPOS>SUBSTRUCTURE
     1 556         1 TEMP              0 ****  ****    0 ROOT
