@<TRIPOS>MOLECULE
557
   49    50     1     0     0
SMALL
bcc


@<TRIPOS>ATOM
      1 C1           0.0000     0.0000     0.0000 ca         1 557      -0.094500
      2 C2           0.0060     0.0060     2.4040 ca         1 557      -0.094500
      3 C3           1.3860    -0.0000     2.3960 ca         1 557      -0.079500
      4 C4           2.0740     0.0000     1.1970 ca         1 557      -0.081300
      5 C5           1.3810     0.0000     0.0000 ca         1 557      -0.079500
      6 C6           3.5810    -0.0060     1.1930 c3         1 557      -0.008400
      7 C7           4.0940     1.2420     0.4730 c3         1 557      -0.003100
      8 C9           4.0840    -1.2560     0.4690 c3         1 557       0.228800
      9 N10          5.5440    -1.3240     0.5690 n7         1 557      -0.601100
     10 S11          6.3340    -2.7340     0.2100 s6         1 557       0.957900
     11 C12         -0.6930     0.0050     1.2030 ca         1 557      -0.160200
     12 N13         -2.0940     0.0120     1.2060 na         1 557       0.652300
     13 N14         -2.9170     0.0250     2.3400 nc         1 557      -0.594800
     14 C15         -4.1630     0.0280     1.9430 cd         1 557       0.256600
     15 C16         -4.1760     0.0170     0.5440 cd         1 557      -0.269600
     16 C17         -2.8930     0.0130     0.1150 cc         1 557      -0.243300
     17 C18         -5.3750     0.0410     2.8370 c3         1 557       0.573600
     18 F19         -6.0870    -1.1530     2.6750 f          1 557      -0.204967
     19 F20         -4.9710     0.1640     4.1710 f          1 557      -0.204967
     20 F21         -6.1950     1.1220     2.4970 f          1 557      -0.204967
     21 O22         -5.0090     0.0040    -1.7050 oh         1 557      -0.598800
     22 C23         -5.4030     0.0160    -0.3320 c3         1 557       0.315700
     23 O24          5.6600    -3.7190     0.9810 o          1 557      -0.580300
     24 C25          6.0250    -2.9900    -1.5590 c3         1 557      -0.032900
     25 C26          6.5850    -1.8050    -2.3490 c3         1 557       0.032400
     26 C27          6.7130    -4.2780    -2.0160 c3         1 557       0.032400
     27 O28          7.7050    -2.4370     0.4400 o          1 557      -0.580300
     28 H1          -0.5420    -0.0000    -0.9380 ha         1 557       0.127000
     29 H2          -0.5320     0.0070     3.3440 ha         1 557       0.127000
     30 H3           1.9320    -0.0000     3.3320 ha         1 557       0.113500
     31 H5           1.9220    -0.0020    -0.9390 ha         1 557       0.113500
     32 H6           3.9450    -0.0090     2.2140 hc         1 557       0.042700
     33 H7           3.2890     1.9610     0.3790 hc         1 557       0.009700
     34 H7A          4.9040     1.6800     1.0430 hc         1 557       0.009700
     35 H7B          4.4520     0.9690    -0.5120 hc         1 557       0.009700
     36 H9           3.7950    -1.2100    -0.5740 h1         1 557       0.018200
     37 H9A          3.6500    -2.1370     0.9260 h1         1 557       0.018200
     38 HN10         6.0640    -0.5180     0.8560 hn         1 557       0.357800
     39 H17         -2.5640     0.0040    -0.9170 h4         1 557       0.170000
     40 HO22        -5.7760    -0.0340    -2.2520 ho         1 557       0.397000
     41 H23         -5.9890     0.9060    -0.1330 h1         1 557      -0.001300
     42 H23A        -5.9980    -0.8630    -0.1190 h1         1 557      -0.001300
     43 H25          4.9590    -3.0680    -1.7320 h1         1 557       0.069700
     44 H26          5.9200    -0.9560    -2.2450 hc         1 557       0.014200
     45 H26A         7.5640    -1.5460    -1.9670 hc         1 557       0.014200
     46 H26B         6.6650    -2.0750    -3.3960 hc         1 557       0.014200
     47 H27          7.7790    -4.2020    -1.8360 hc         1 557       0.014200
     48 H27A         6.3120    -5.1180    -1.4610 hc         1 557       0.014200
     49 H27B         6.5360    -4.4260    -3.0750 hc         1 557       0.014200
@<TRIPOS>BOND
     1     1     5 ar  
     2     1    11 ar  
     3     1    28 1   
     4     2     3 ar  
     5     2    11 ar  
     6     2    29 1   
     7     3     4 ar  
     8     3    30 1   
     9     4     5 ar  
    10     4     6 1   
    11     5    31 1   
    12     6     7 1   
    13     6     8 1   
    14     6    32 1   
    15     7    33 1   
    16     7    34 1   
    17     7    35 1   
    18     8     9 1   
    19     8    36 1   
    20     8    37 1   
    21     9    10 1   
    22     9    38 1   
    23    10    23 2   
    24    10    24 1   
    25    10    27 2   
    26    11    12 1   
    27    12    13 1   
    28    12    16 1   
    29    13    14 2   
    30    14    15 1   
    31    14    17 1   
    32    15    16 2   
    33    15    22 1   
    34    16    39 1   
    35    17    18 1   
    36    17    19 1   
    37    17    20 1   
    38    21    22 1   
    39    21    40 1   
    40    22    41 1   
    41    22    42 1   
    42    24    25 1   
    43    24    26 1   
    44    24    43 1   
    45    25    44 1   
    46    25    45 1   
    47    25    46 1   
    48    26    47 1   
    49    26    48 1   
    50    26    49 1   
@<TRIPOS>SUBSTRUCTURE
     1 557         1 TEMP              0 ****  ****    0 ROOT
