@<TRIPOS>MOLECULE
558
   51    55     1     0     0
SMALL
bcc


@<TRIPOS>ATOM
      1 CAU          0.0000     0.0000     0.0000 ca         1 558      -0.003000
      2 CAT          1.3800     0.0000     0.0000 ca         1 558      -0.304300
      3 CAS          2.0610     0.0000     1.2150 ca         1 558       0.517200
      4 NBA          3.4490     0.0010     1.2240 nv         1 558      -0.516500
      5 NAR          1.3990     0.0010     2.3630 nb         1 558      -0.653000
      6 CAQ          0.0820     0.0020     2.4050 ca         1 558       0.474200
      7 CAO         -0.6660     0.0060     1.2310 cp         1 558      -0.250300
      8 CAM         -2.1480     0.0060     1.2850 cp         1 558       0.027000
      9 CAN         -2.8000     0.0020     2.5170 ca         1 558      -0.105000
     10 CAC         -4.1810     0.0050     2.5610 ca         1 558       0.052600
     11 CAL         -2.8870     0.0170     0.1030 ca         1 558      -0.104000
     12 CAK         -4.2680     0.0360     0.1480 ca         1 558      -0.072000
     13 CAB         -4.9150     0.0340     1.3670 ca         1 558      -0.198200
     14 NAA         -6.3100     0.1200     1.4740 na         1 558       0.284200
     15 CAJ         -7.2860    -0.5510     0.8260 cc         1 558       0.169800
     16 CBC         -7.0990    -1.6050    -0.2340 c3         1 558       0.011600
     17 NAI         -8.4260    -0.1080     1.2970 nd         1 558      -0.336000
     18 NAH         -8.2130     0.7950     2.1910 nd         1 558      -0.307000
     19 CAG         -6.9350     0.9770     2.3350 cc         1 558       0.154800
     20 CAF         -6.2100     1.9300     3.2470 c3         1 558      -0.059000
     21 CBB         -5.1780     2.7200     2.4400 c3         1 558      -0.026100
     22 CAE         -5.4960     1.1410     4.3560 c3         1 558       0.158800
     23 NAD         -4.8750    -0.0250     3.7700 nh         1 558      -0.239400
     24 CAP         -4.9780    -1.2370     4.4600 ca         1 558       0.058600
     25 CAV         -4.5040    -2.4080     3.8830 ca         1 558      -0.173000
     26 CAW         -4.6070    -3.6030     4.5660 ca         1 558      -0.049000
     27 CAX         -5.1820    -3.6340     5.8250 ca         1 558      -0.080600
     28 ClB         -5.3090    -5.1390     6.6830 cl         1 558      -0.034400
     29 CAY         -5.6540    -2.4690     6.4020 ca         1 558      -0.049000
     30 CAZ         -5.5490    -1.2700     5.7250 ca         1 558      -0.173000
     31 H1          -0.5540     0.0010    -0.9310 ha         1 558       0.111000
     32 H2           1.9280    -0.0040    -0.9350 ha         1 558       0.119000
     33 H3           3.9440     0.0910     2.0890 hn         1 558       0.272300
     34 H4           3.9550    -0.0920     0.3650 hn         1 558       0.272300
     35 H5          -0.4230     0.0040     3.3630 h4         1 558      -0.015900
     36 H6          -2.2290     0.1000     3.4330 ha         1 558       0.130000
     37 H7          -2.3770     0.0100    -0.8530 ha         1 558       0.119000
     38 H8          -4.8410     0.0440    -0.7720 ha         1 558       0.120000
     39 H9          -6.8530    -1.1310    -1.1760 hc         1 558       0.015367
     40 H10         -8.0160    -2.1730    -0.3440 hc         1 558       0.015367
     41 H11         -6.2950    -2.2710     0.0560 hc         1 558       0.015367
     42 H12         -6.9240     2.6110     3.6930 hc         1 558       0.057700
     43 H13         -5.3010     3.7790     2.6330 hc         1 558       0.016033
     44 H14         -4.1800     2.4140     2.7320 hc         1 558       0.016033
     45 H15         -5.3200     2.5270     1.3830 hc         1 558       0.016033
     46 H16         -4.7280     1.7670     4.7930 h1         1 558       0.038200
     47 H17         -6.2290     0.8190     5.0860 h1         1 558       0.038200
     48 H18         -4.0550    -2.3840     2.8970 ha         1 558       0.122000
     49 H19         -4.2380    -4.5170     4.1170 ha         1 558       0.111500
     50 H20         -6.1010    -2.4960     7.3890 ha         1 558       0.111500
     51 H21         -5.9190    -0.3580     6.1770 ha         1 558       0.122000
@<TRIPOS>BOND
     1     1     2 ar  
     2     1     7 ar  
     3     1    31 1   
     4     2     3 ar  
     5     2    32 1   
     6     3     4 1   
     7     3     5 ar  
     8     4    33 1   
     9     4    34 1   
    10     5     6 ar  
    11     6     7 ar  
    12     6    35 1   
    13     7     8 1   
    14     8     9 ar  
    15     8    11 ar  
    16     9    10 ar  
    17     9    36 1   
    18    10    13 ar  
    19    10    23 1   
    20    11    12 ar  
    21    11    37 1   
    22    12    13 ar  
    23    12    38 1   
    24    13    14 1   
    25    14    15 1   
    26    14    19 1   
    27    15    16 1   
    28    15    17 2   
    29    16    39 1   
    30    16    40 1   
    31    16    41 1   
    32    17    18 1   
    33    18    19 2   
    34    19    20 1   
    35    20    21 1   
    36    20    22 1   
    37    20    42 1   
    38    21    43 1   
    39    21    44 1   
    40    21    45 1   
    41    22    23 1   
    42    22    46 1   
    43    22    47 1   
    44    23    24 1   
    45    24    25 ar  
    46    24    30 ar  
    47    25    26 ar  
    48    25    48 1   
    49    26    27 ar  
    50    26    49 1   
    51    27    28 1   
    52    27    29 ar  
    53    29    30 ar  
    54    29    50 1   
    55    30    51 1   
@<TRIPOS>SUBSTRUCTURE
     1 558         1 TEMP              0 ****  ****    0 ROOT
