@<TRIPOS>MOLECULE
molecule
   51    55     1     0     0
SMALL
bcc


@<TRIPOS>ATOM
      1 CAU          0.0000     0.0000     0.0000 ca         1 558      -0.036000
      2 CAT          1.3800     0.0000     0.0000 ca         1 558      -0.322300
      3 CAS          2.0610     0.0000     1.2150 ca         1 558       0.714200
      4 NBA          3.4490     0.0010     1.2240 nv         1 558      -1.005500
      5 NAR          1.3990     0.0010     2.3630 nb         1 558      -0.761000
      6 CAQ          0.0820     0.0020     2.4050 ca         1 558       0.489200
      7 CAO         -0.6660     0.0060     1.2310 cp         1 558      -0.241300
      8 CAM         -2.1480     0.0060     1.2850 cp         1 558       0.001000
      9 CAN         -2.8000     0.0020     2.5170 ca         1 558      -0.127000
     10 CAC         -4.1810     0.0050     2.5610 ca         1 558       0.163600
     11 CAL         -2.8870     0.0170     0.1030 ca         1 558      -0.123000
     12 CAK         -4.2680     0.0360     0.1480 ca         1 558      -0.117000
     13 CAB         -4.9150     0.0340     1.3670 ca         1 558      -0.023200
     14 NAA         -6.3100     0.1200     1.4740 na         1 558      -0.241800
     15 CAJ         -7.2860    -0.5510     0.8260 cc         1 558       0.375800
     16 CBC         -7.0990    -1.6050    -0.2340 c3         1 558      -0.105400
     17 NAI         -8.4260    -0.1080     1.2970 nc         1 558      -0.356000
     18 NAH         -8.2130     0.7950     2.1910 nc         1 558      -0.343000
     19 CAG         -6.9350     0.9770     2.3350 cd         1 558       0.370800
     20 CAF         -6.2100     1.9300     3.2470 c3         1 558      -0.105000
     21 CBB         -5.1780     2.7200     2.4400 c3         1 558      -0.100100
     22 CAE         -5.4960     1.1410     4.3560 c3         1 558       0.242800
     23 NAD         -4.8750    -0.0250     3.7700 nh         1 558      -0.615400
     24 CAP         -4.9780    -1.2370     4.4600 ca         1 558       0.196600
     25 CAV         -4.5040    -2.4080     3.8830 ca         1 558      -0.188000
     26 CAW         -4.6070    -3.6030     4.5660 ca         1 558      -0.078000
     27 CAX         -5.1820    -3.6340     5.8250 ca         1 558      -0.017600
     28 ClB         -5.3090    -5.1390     6.6830 cl         1 558      -0.116400
     29 CAY         -5.6540    -2.4690     6.4020 ca         1 558      -0.078000
     30 CAZ         -5.5490    -1.2700     5.7250 ca         1 558      -0.188000
     31 H1          -0.5540     0.0010    -0.9310 ha         1 558       0.139000
     32 H2           1.9280    -0.0040    -0.9350 ha         1 558       0.138000
     33 H3           3.9440     0.0910     2.0890 hn         1 558       0.443300
     34 H4           3.9550    -0.0920     0.3650 hn         1 558       0.443300
     35 H5          -0.4230     0.0040     3.3630 h4         1 558       0.027100
     36 H6          -2.2290     0.1000     3.4330 ha         1 558       0.152000
     37 H7          -2.3770     0.0100    -0.8530 ha         1 558       0.142000
     38 H8          -4.8410     0.0440    -0.7720 ha         1 558       0.147000
     39 H9          -6.8530    -1.1310    -1.1760 hc         1 558       0.058367
     40 H10         -8.0160    -2.1730    -0.3440 hc         1 558       0.058367
     41 H11         -6.2950    -2.2710     0.0560 hc         1 558       0.058367
     42 H12         -6.9240     2.6110     3.6930 hc         1 558       0.091700
     43 H13         -5.3010     3.7790     2.6330 hc         1 558       0.046367
     44 H14         -4.1800     2.4140     2.7320 hc         1 558       0.046367
     45 H15         -5.3200     2.5270     1.3830 hc         1 558       0.046367
     46 H16         -4.7280     1.7670     4.7930 h1         1 558       0.062200
     47 H17         -6.2290     0.8190     5.0860 h1         1 558       0.062200
     48 H18         -4.0550    -2.3840     2.8970 ha         1 558       0.142000
     49 H19         -4.2380    -4.5170     4.1170 ha         1 558       0.144500
     50 H20         -6.1010    -2.4960     7.3890 ha         1 558       0.144500
     51 H21         -5.9190    -0.3580     6.1770 ha         1 558       0.142000
@<TRIPOS>BOND
     1    17    18 1
     2    17    15 2
     3    16    15 1
     4    18    19 2
     5    15    14 1
     6    19    14 1
     7    19    20 1
     8    14    13 1
     9    21    20 1
    10    12    13 ar
    11    12    11 ar
    12    20    22 1
    13    13    10 ar
    14    11     8 ar
    15    22    23 1
    16    10    23 1
    17    10     9 ar
    18     8     9 ar
    19     8     7 1
    20    23    24 1
    21     6     7 ar
    22     6     5 ar
    23     7     1 ar
    24    24    25 ar
    25    24    30 ar
    26     5     3 ar
    27     1     2 ar
    28    25    26 ar
    29    30    29 ar
    30     3     2 ar
    31     3     4 1
    32    26    27 ar
    33    29    27 ar
    34    27    28 1
    35     1    31 1
    36     2    32 1
    37     4    33 1
    38     4    34 1
    39     6    35 1
    40     9    36 1
    41    11    37 1
    42    12    38 1
    43    16    39 1
    44    16    40 1
    45    16    41 1
    46    20    42 1
    47    21    43 1
    48    21    44 1
    49    21    45 1
    50    22    46 1
    51    22    47 1
    52    25    48 1
    53    26    49 1
    54    29    50 1
    55    30    51 1
@<TRIPOS>SUBSTRUCTURE
     1 558         1 TEMP              0 ****  ****    0 ROOT
