@<TRIPOS>MOLECULE
559
   51    55     1     0     0
SMALL
bcc


@<TRIPOS>ATOM
      1 CAU          0.0000     0.0000     0.0000 ca         1 559      -0.006000
      2 CAT          1.3800     0.0000     0.0000 ca         1 559      -0.300300
      3 CAS          2.0600     0.0000     1.2150 ca         1 559       0.517200
      4 NBA          3.4500    -0.0010     1.2230 nv         1 559      -0.522500
      5 NAR          1.3990     0.0020     2.3630 nb         1 559      -0.649000
      6 CAQ          0.0820     0.0020     2.4050 ca         1 559       0.471200
      7 CAO         -0.6660     0.0010     1.2310 cp         1 559      -0.247300
      8 CAM         -2.1490     0.0080     1.2840 cp         1 559       0.026000
      9 CAN         -2.8010     0.0150     2.5160 ca         1 559      -0.105000
     10 CAC         -4.1820     0.0210     2.5600 ca         1 559       0.051600
     11 CAL         -2.8870     0.0140     0.1010 ca         1 559      -0.104000
     12 CAK         -4.2680     0.0110     0.1460 ca         1 559      -0.072000
     13 CAB         -4.9150     0.0010     1.3670 ca         1 559      -0.199200
     14 NAA         -6.3110    -0.0560     1.4720 na         1 559       0.285200
     15 CAJ         -7.2720     0.6400     0.8300 cc         1 559       0.169800
     16 CBC         -7.0630     1.6970    -0.2240 c3         1 559       0.011600
     17 NAI         -8.4210     0.2190     1.2960 nd         1 559      -0.336000
     18 NAH         -8.2290    -0.6940     2.1840 nd         1 559      -0.306000
     19 CAG         -6.9550    -0.9030     2.3300 cc         1 559       0.154800
     20 CAF         -6.2520    -1.8750     3.2380 c3         1 559      -0.059000
     21 CBB         -5.2370    -2.6860     2.4290 c3         1 559      -0.025100
     22 CAE         -5.5220    -1.1060     4.3510 c3         1 559       0.164800
     23 NAD         -4.8750     0.0760     3.7690 nh         1 559      -0.245400
     24 CAP         -4.9550     1.2940     4.4470 ca         1 559       0.063600
     25 CAV         -5.5330     1.3520     5.7090 ca         1 559      -0.174000
     26 CAW         -5.6120     2.5580     6.3780 ca         1 559      -0.048000
     27 CAX         -5.1150     3.7090     5.7910 ca         1 559      -0.081600
     28 ClB         -5.2210     5.2240     6.6310 cl         1 559      -0.034400
     29 CAY         -4.5390     3.6550     4.5340 ca         1 559      -0.048000
     30 CAZ         -4.4520     2.4510     3.8630 ca         1 559      -0.174000
     31 H1          -0.5550    -0.0000    -0.9310 ha         1 559       0.111000
     32 H2           1.9280    -0.0010    -0.9350 ha         1 559       0.119000
     33 H3           3.9550     0.2140     0.3870 hn         1 559       0.272800
     34 H4           3.9450    -0.1970     2.0710 hn         1 559       0.272800
     35 H5          -0.4240     0.0030     3.3630 h4         1 559      -0.015900
     36 H6          -2.2300    -0.0920     3.4310 ha         1 559       0.130000
     37 H7          -2.3770     0.0340    -0.8550 ha         1 559       0.119000
     38 H8          -4.8410     0.0150    -0.7730 ha         1 559       0.120000
     39 H9          -7.9650     2.2880    -0.3270 hc         1 559       0.015367
     40 H10         -6.8330     1.2230    -1.1710 hc         1 559       0.015367
     41 H11         -6.2410     2.3400     0.0670 hc         1 559       0.015367
     42 H12         -6.9810    -2.5420     3.6820 hc         1 559       0.057700
     43 H13         -5.4060    -2.5240     1.3710 hc         1 559       0.015700
     44 H14         -5.3530    -3.7390     2.6560 hc         1 559       0.015700
     45 H15         -4.2340    -2.3690     2.6870 hc         1 559       0.015700
     46 H16         -6.2470    -0.7820     5.0870 h1         1 559       0.037200
     47 H17         -4.7610    -1.7480     4.7790 h1         1 559       0.037200
     48 H18         -5.9230     0.4520     6.1680 ha         1 559       0.121000
     49 H19         -6.0620     2.6030     7.3620 ha         1 559       0.111500
     50 H20         -4.1490     4.5580     4.0790 ha         1 559       0.111500
     51 H21         -4.0010     2.4100     2.8790 ha         1 559       0.121000
@<TRIPOS>BOND
     1     1     2 ar  
     2     1     7 ar  
     3     1    31 1   
     4     2     3 ar  
     5     2    32 1   
     6     3     4 1   
     7     3     5 ar  
     8     4    33 1   
     9     4    34 1   
    10     5     6 ar  
    11     6     7 ar  
    12     6    35 1   
    13     7     8 1   
    14     8     9 ar  
    15     8    11 ar  
    16     9    10 ar  
    17     9    36 1   
    18    10    13 ar  
    19    10    23 1   
    20    11    12 ar  
    21    11    37 1   
    22    12    13 ar  
    23    12    38 1   
    24    13    14 1   
    25    14    15 1   
    26    14    19 1   
    27    15    16 1   
    28    15    17 2   
    29    16    39 1   
    30    16    40 1   
    31    16    41 1   
    32    17    18 1   
    33    18    19 2   
    34    19    20 1   
    35    20    21 1   
    36    20    22 1   
    37    20    42 1   
    38    21    43 1   
    39    21    44 1   
    40    21    45 1   
    41    22    23 1   
    42    22    46 1   
    43    22    47 1   
    44    23    24 1   
    45    24    25 ar  
    46    24    30 ar  
    47    25    26 ar  
    48    25    48 1   
    49    26    27 ar  
    50    26    49 1   
    51    27    28 1   
    52    27    29 ar  
    53    29    30 ar  
    54    29    50 1   
    55    30    51 1   
@<TRIPOS>SUBSTRUCTURE
     1 559         1 TEMP              0 ****  ****    0 ROOT
