@<TRIPOS>MOLECULE
55A
   83    85     1     0     0
SMALL
bcc


@<TRIPOS>ATOM
      1 C27          0.0000     0.0000     0.0000 c          1 55A       0.581100
      2 O27          1.2130     0.0000     0.0000 o          1 55A      -0.617100
      3 C28         -0.7530     0.0000     1.3040 c3         1 55A      -0.062100
      4 N27         -0.6740     0.0010    -1.1680 ns         1 55A      -0.186900
      5 C22          0.0580     0.0010    -2.4370 c3         1 55A      -0.038300
      6 C21          0.9240    -1.2300    -2.5170 c          1 55A       0.553100
      7 O22          1.2200    -1.8300    -1.5050 o          1 55A      -0.589100
      8 C23          0.9400     1.2500    -2.5170 c3         1 55A      -0.059400
      9 C25          0.0530     2.4960    -2.5610 c3         1 55A      -0.055700
     10 C24          0.9310     3.7490    -2.5150 c3         1 55A       0.003900
     11 C26         -0.7670     2.4950    -3.8540 c3         1 55A       0.003900
     12 N11          4.9390    -3.8600    -6.2230 n3         1 55A      -0.516500
     13 C12          4.5320    -4.3760    -7.5330 c3         1 55A       0.230800
     14 C13          4.9010    -5.8570    -7.6340 c3         1 55A      -0.079700
     15 C14          4.0830    -6.6570    -6.6180 c3         1 55A      -0.014100
     16 C15          4.5970    -6.3630    -9.0450 c3         1 55A      -0.020400
     17 C17          3.0700    -2.7970    -5.0570 c3         1 55A       0.145100
     18 C18          5.0810    -7.8080    -9.1850 c3         1 55A       0.002900
     19 O18          2.2260    -2.8540    -6.2070 oh         1 55A      -0.581800
     20 C19          2.2130    -2.8590    -3.7910 c3         1 55A       0.005700
     21 N20          1.3710    -1.6620    -3.7130 ns         1 55A      -0.202900
     22 C32          1.3260    -4.1050    -3.8360 c3         1 55A       0.012900
     23 C33         -0.6680    -3.6370    -2.3970 ca         1 55A      -0.092000
     24 C34         -1.3590    -3.7530    -1.2060 ca         1 55A      -0.092000
     25 C35         -0.8110    -4.4640    -0.1540 ca         1 55A      -0.099000
     26 C36          0.4290    -5.0590    -0.2950 ca         1 55A      -0.092000
     27 C37          1.1210    -4.9430    -1.4860 ca         1 55A      -0.092000
     28 C38          0.5720    -4.2320    -2.5370 ca         1 55A      -0.075300
     29 C1           5.3700     3.2310    -5.8390 cc         1 55A       0.435100
     30 N1           5.6580     2.6290    -6.9300 nd         1 55A      -0.458100
     31 S1           5.3120     2.1460    -4.5230 ss         1 55A      -0.179100
     32 C2           5.8600     1.2990    -6.8810 ca         1 55A       0.110400
     33 C3           5.7120     0.7980    -5.5830 ca         1 55A      -0.068100
     34 C4           5.8830    -0.5610    -5.3300 ca         1 55A       0.067000
     35 C5           6.2000    -1.4170    -6.3600 ca         1 55A      -0.160500
     36 C6           6.3490    -0.9270    -7.6510 ca         1 55A      -0.010000
     37 C7           6.1830     0.3980    -7.9160 ca         1 55A      -0.071000
     38 S8           6.4180    -3.1360    -6.0430 sy         1 55A       1.048200
     39 O9           7.2400    -3.6370    -7.0870 o          1 55A      -0.581800
     40 O10          6.7540    -3.2500    -4.6660 o          1 55A      -0.581800
     41 H28         -0.4130    -0.8260     1.9170 hc         1 55A       0.019700
     42 H28A        -0.5750     0.9330     1.8240 hc         1 55A       0.019700
     43 H28B        -1.8130    -0.1080     1.1090 hc         1 55A       0.019700
     44 HN27        -1.6750     0.0010    -1.1680 hn         1 55A       0.169500
     45 H22         -0.6450     0.0020    -3.2600 h1         1 55A       0.035700
     46 H23          1.5460     1.2080    -3.4130 hc         1 55A       0.047700
     47 H23A         1.5830     1.2950    -1.6470 hc         1 55A       0.047700
     48 H25         -0.6160     2.4940    -1.7090 hc         1 55A       0.027700
     49 H24          0.3040     4.6270    -2.4220 hc         1 55A       0.003033
     50 H24A         1.6000     3.6900    -1.6650 hc         1 55A       0.003033
     51 H24B         1.5120     3.8160    -3.4270 hc         1 55A       0.003033
     52 H26         -1.6540     1.8880    -3.7180 hc         1 55A       0.003033
     53 H26A        -1.0570     3.5090    -4.0990 hc         1 55A       0.003033
     54 H26B        -0.1700     2.0860    -4.6590 hc         1 55A       0.003033
     55 H12          5.0410    -3.8230    -8.3130 h1         1 55A       0.027700
     56 H12A         3.4610    -4.2620    -7.6500 h1         1 55A       0.027700
     57 H13          5.9570    -5.9810    -7.4260 hc         1 55A       0.051700
     58 H14          3.1070    -6.2020    -6.5020 hc         1 55A       0.009367
     59 H14A         4.5960    -6.6600    -5.6640 hc         1 55A       0.009367
     60 H14B         3.9670    -7.6750    -6.9690 hc         1 55A       0.009367
     61 H15          3.5290    -6.3220    -9.2220 hc         1 55A       0.012200
     62 H15A         5.1080    -5.7400    -9.7700 hc         1 55A       0.012200
     63 H16          4.6180    -3.9900    -4.1610 h1         1 55A       0.057200
     64 H16A         3.4770    -4.9060    -5.1540 h1         1 55A       0.057200
     65 H17          3.6330    -1.8710    -5.0670 h1         1 55A       0.007700
     66 H18          5.3770    -7.9920   -10.2110 hc         1 55A       0.003367
     67 H18A         5.9290    -7.9700    -8.5300 hc         1 55A       0.003367
     68 H18B         4.2800    -8.4850    -8.9130 hc         1 55A       0.003367
     69 HO18         2.2380    -2.0200    -6.6480 ho         1 55A       0.388000
     70 H19          2.8570    -2.9050    -2.9210 h1         1 55A       0.071700
     71 HN20         1.1540    -1.1480    -4.5440 hn         1 55A       0.167500
     72 H32          1.9430    -4.9830    -3.9830 hc         1 55A       0.031200
     73 H32A         0.6220    -4.0180    -4.6550 hc         1 55A       0.031200
     74 H33         -1.0970    -3.0790    -3.2210 ha         1 55A       0.098000
     75 H34         -2.3300    -3.2860    -1.0960 ha         1 55A       0.096000
     76 H35         -1.3530    -4.5550     0.7790 ha         1 55A       0.097000
     77 H36          0.8590    -5.6160     0.5290 ha         1 55A       0.096000
     78 H37          2.0920    -5.4090    -1.5960 ha         1 55A       0.098000
     79 H4           5.7670    -0.9450    -4.3230 ha         1 55A       0.135000
     80 H6           6.5990    -1.6070    -8.4570 ha         1 55A       0.129000
     81 H7           6.3030     0.7640    -8.9290 ha         1 55A       0.121000
     82 C16          4.0380    -3.9820    -5.0760 c3         1 55A       0.184800
     83 H1           5.1870     4.2960    -5.7590 h5         1 55A       0.032800
@<TRIPOS>BOND
     1     1     2 2   
     2     1     3 1   
     3     1     4 1   
     4     3    41 1   
     5     3    42 1   
     6     3    43 1   
     7     4     5 1   
     8     4    44 1   
     9     5     6 1   
    10     5     8 1   
    11     5    45 1   
    12     6     7 2   
    13     6    21 1   
    14     8     9 1   
    15     8    46 1   
    16     8    47 1   
    17     9    10 1   
    18     9    11 1   
    19     9    48 1   
    20    10    49 1   
    21    10    50 1   
    22    10    51 1   
    23    11    52 1   
    24    11    53 1   
    25    11    54 1   
    26    12    13 1   
    27    12    38 1   
    28    12    82 1   
    29    13    14 1   
    30    13    55 1   
    31    13    56 1   
    32    14    15 1   
    33    14    16 1   
    34    14    57 1   
    35    15    58 1   
    36    15    59 1   
    37    15    60 1   
    38    16    18 1   
    39    16    61 1   
    40    16    62 1   
    41    17    19 1   
    42    17    20 1   
    43    17    65 1   
    44    17    82 1   
    45    18    66 1   
    46    18    67 1   
    47    18    68 1   
    48    19    69 1   
    49    20    21 1   
    50    20    22 1   
    51    20    70 1   
    52    21    71 1   
    53    22    28 1   
    54    22    72 1   
    55    22    73 1   
    56    23    24 ar  
    57    23    28 ar  
    58    23    74 1   
    59    24    25 ar  
    60    24    75 1   
    61    25    26 ar  
    62    25    76 1   
    63    26    27 ar  
    64    26    77 1   
    65    27    28 ar  
    66    27    78 1   
    67    29    30 2   
    68    29    31 1   
    69    29    83 1   
    70    30    32 1   
    71    31    33 1   
    72    32    33 ar  
    73    32    37 ar  
    74    33    34 ar  
    75    34    35 ar  
    76    34    79 1   
    77    35    36 ar  
    78    35    38 1   
    79    36    37 ar  
    80    36    80 1   
    81    37    81 1   
    82    38    39 2   
    83    38    40 2   
    84    63    82 1   
    85    64    82 1   
@<TRIPOS>SUBSTRUCTURE
     1 55A         1 TEMP              0 ****  ****    0 ROOT
