@<TRIPOS>MOLECULE
molecule
   83    85     1     0     0
SMALL
bcc


@<TRIPOS>ATOM
      1 C27          0.0000     0.0000     0.0000 c          1 55A       0.667100
      2 O27          1.2130     0.0000     0.0000 o          1 55A      -0.583100
      3 C28         -0.7530     0.0000     1.3040 c3         1 55A      -0.163100
      4 N27         -0.6740     0.0010    -1.1680 ns         1 55A      -0.578900
      5 C22          0.0580     0.0010    -2.4370 c3         1 55A       0.054700
      6 C21          0.9240    -1.2300    -2.5170 c          1 55A       0.640100
      7 O22          1.2200    -1.8300    -1.5050 o          1 55A      -0.552100
      8 C23          0.9400     1.2500    -2.5170 c3         1 55A      -0.094400
      9 C25          0.0530     2.4960    -2.5610 c3         1 55A      -0.076700
     10 C24          0.9310     3.7490    -2.5150 c3         1 55A      -0.089100
     11 C26         -0.7670     2.4950    -3.8540 c3         1 55A      -0.089100
     12 N11          4.9390    -3.8600    -6.2230 n3         1 55A      -0.810500
     13 C12          4.5320    -4.3760    -7.5330 c3         1 55A       0.237800
     14 C13          4.9010    -5.8570    -7.6340 c3         1 55A      -0.092700
     15 C14          4.0830    -6.6570    -6.6180 c3         1 55A      -0.092100
     16 C15          4.5970    -6.3630    -9.0450 c3         1 55A      -0.078400
     17 C17          3.0700    -2.7970    -5.0570 c3         1 55A       0.105100
     18 C18          5.0810    -7.8080    -9.1850 c3         1 55A      -0.090100
     19 O18          2.2260    -2.8540    -6.2070 oh         1 55A      -0.601800
     20 C19          2.2130    -2.8590    -3.7910 c3         1 55A       0.109700
     21 N20          1.3710    -1.6620    -3.7130 ns         1 55A      -0.590900
     22 C32          1.3260    -4.1050    -3.8360 c3         1 55A      -0.045100
     23 C33         -0.6680    -3.6370    -2.3970 ca         1 55A      -0.115500
     24 C34         -1.3590    -3.7530    -1.2060 ca         1 55A      -0.119500
     25 C35         -0.8110    -4.4640    -0.1540 ca         1 55A      -0.126000
     26 C36          0.4290    -5.0590    -0.2950 ca         1 55A      -0.119500
     27 C37          1.1210    -4.9430    -1.4860 ca         1 55A      -0.115500
     28 C38          0.5720    -4.2320    -2.5370 ca         1 55A      -0.068300
     29 C1           5.3700     3.2310    -5.8390 cc         1 55A       0.416100
     30 N1           5.6580     2.6290    -6.9300 nd         1 55A      -0.584100
     31 S1           5.3120     2.1460    -4.5230 ss         1 55A      -0.078100
     32 C2           5.8600     1.2990    -6.8810 ca         1 55A       0.162400
     33 C3           5.7120     0.7980    -5.5830 ca         1 55A      -0.094100
     34 C4           5.8830    -0.5610    -5.3300 ca         1 55A       0.024000
     35 C5           6.2000    -1.4170    -6.3600 ca         1 55A      -0.313500
     36 C6           6.3490    -0.9270    -7.6510 ca         1 55A      -0.045000
     37 C7           6.1830     0.3980    -7.9160 ca         1 55A      -0.093000
     38 S8           6.4180    -3.1360    -6.0430 sy         1 55A       1.420200
     39 O9           7.2400    -3.6370    -7.0870 o          1 55A      -0.629800
     40 O10          6.7540    -3.2500    -4.6660 o          1 55A      -0.629800
     41 H28         -0.4130    -0.8260     1.9170 hc         1 55A       0.057700
     42 H28A        -0.5750     0.9330     1.8240 hc         1 55A       0.057700
     43 H28B        -1.8130    -0.1080     1.1090 hc         1 55A       0.057700
     44 HN27        -1.6750     0.0010    -1.1680 hn         1 55A       0.313500
     45 H22         -0.6450     0.0020    -3.2600 h1         1 55A       0.060700
     46 H23          1.5460     1.2080    -3.4130 hc         1 55A       0.068700
     47 H23A         1.5830     1.2950    -1.6470 hc         1 55A       0.068700
     48 H25         -0.6160     2.4940    -1.7090 hc         1 55A       0.055700
     49 H24          0.3040     4.6270    -2.4220 hc         1 55A       0.033700
     50 H24A         1.6000     3.6900    -1.6650 hc         1 55A       0.033700
     51 H24B         1.5120     3.8160    -3.4270 hc         1 55A       0.033700
     52 H26         -1.6540     1.8880    -3.7180 hc         1 55A       0.033700
     53 H26A        -1.0570     3.5090    -4.0990 hc         1 55A       0.033700
     54 H26B        -0.1700     2.0860    -4.6590 hc         1 55A       0.033700
     55 H12          5.0410    -3.8230    -8.3130 h1         1 55A       0.059700
     56 H12A         3.4610    -4.2620    -7.6500 h1         1 55A       0.059700
     57 H13          5.9570    -5.9810    -7.4260 hc         1 55A       0.068700
     58 H14          3.1070    -6.2020    -6.5020 hc         1 55A       0.037033
     59 H14A         4.5960    -6.6600    -5.6640 hc         1 55A       0.037033
     60 H14B         3.9670    -7.6750    -6.9690 hc         1 55A       0.037033
     61 H15          3.5290    -6.3220    -9.2220 hc         1 55A       0.041200
     62 H15A         5.1080    -5.7400    -9.7700 hc         1 55A       0.041200
     63 H16          4.6180    -3.9900    -4.1610 h1         1 55A       0.084200
     64 H16A         3.4770    -4.9060    -5.1540 h1         1 55A       0.084200
     65 H17          3.6330    -1.8710    -5.0670 h1         1 55A       0.038700
     66 H18          5.3770    -7.9920   -10.2110 hc         1 55A       0.035033
     67 H18A         5.9290    -7.9700    -8.5300 hc         1 55A       0.035033
     68 H18B         4.2800    -8.4850    -8.9130 hc         1 55A       0.035033
     69 HO18         2.2380    -2.0200    -6.6480 ho         1 55A       0.402000
     70 H19          2.8570    -2.9050    -2.9210 h1         1 55A       0.092700
     71 HN20         1.1540    -1.1480    -4.5440 hn         1 55A       0.306500
     72 H32          1.9430    -4.9830    -3.9830 hc         1 55A       0.057700
     73 H32A         0.6220    -4.0180    -4.6550 hc         1 55A       0.057700
     74 H33         -1.0970    -3.0790    -3.2210 ha         1 55A       0.122000
     75 H34         -2.3300    -3.2860    -1.0960 ha         1 55A       0.122000
     76 H35         -1.3530    -4.5550     0.7790 ha         1 55A       0.123000
     77 H36          0.8590    -5.6160     0.5290 ha         1 55A       0.122000
     78 H37          2.0920    -5.4090    -1.5960 ha         1 55A       0.122000
     79 H4           5.7670    -0.9450    -4.3230 ha         1 55A       0.160000
     80 H6           6.5990    -1.6070    -8.4570 ha         1 55A       0.157000
     81 H7           6.3030     0.7640    -8.9290 ha         1 55A       0.153000
     82 C16          4.0380    -3.9820    -5.0760 c3         1 55A       0.215800
     83 H1           5.1870     4.2960    -5.7590 h5         1 55A       0.073800
@<TRIPOS>BOND
     1    29    30 2   
     2    29    31 1   
     3    30    32 1   
     4    31    33 1   
     5    32    33 ar  
     6    32    37 ar  
     7    33    34 ar  
     8    34    35 ar  
     9    35    36 ar  
    10    35    38 1   
    11    36    37 ar  
    12    38    39 2   
    13    38    40 2   
    14    38    12 1   
    15    12    13 1   
    16    12    82 1   
    17    13    14 1   
    18    14    15 1   
    19    14    16 1   
    20    16    18 1   
    21    82    17 1   
    22    17    19 1   
    23    17    20 1   
    24    20    21 1   
    25    20    22 1   
    26    21     6 1   
    27     6     5 1   
    28     6     7 2   
    29     5     8 1   
    30     5     4 1   
    31     8     9 1   
    32    10     9 1   
    33     9    11 1   
    34     1     4 1   
    35     1     2 2   
    36     1     3 1   
    37    22    28 1   
    38    23    24 ar  
    39    23    28 ar  
    40    24    25 ar  
    41    25    26 ar  
    42    26    27 ar  
    43    27    28 ar  
    44    29    83 1   
    45    34    79 1   
    46    36    80 1   
    47    37    81 1   
    48    13    55 1   
    49    13    56 1   
    50    14    57 1   
    51    15    58 1   
    52    15    59 1   
    53    15    60 1   
    54    16    61 1   
    55    16    62 1   
    56    82    63 1   
    57    82    64 1   
    58    17    65 1   
    59    18    66 1   
    60    18    67 1   
    61    18    68 1   
    62    19    69 1   
    63    20    70 1   
    64    21    71 1   
    65     5    45 1   
    66     8    46 1   
    67     8    47 1   
    68    10    49 1   
    69    10    50 1   
    70    10    51 1   
    71     9    48 1   
    72    11    52 1   
    73    11    53 1   
    74    11    54 1   
    75     4    44 1   
    76     3    41 1   
    77     3    42 1   
    78     3    43 1   
    79    22    72 1   
    80    22    73 1   
    81    23    74 1   
    82    24    75 1   
    83    25    76 1   
    84    26    77 1   
    85    27    78 1   
@<TRIPOS>SUBSTRUCTURE
     1 55A         1 TEMP              0 ****  ****    0 ROOT
