@<TRIPOS>MOLECULE
55B
   29    29     1     0     0
SMALL
bcc


@<TRIPOS>ATOM
      1 CAA         0.1160    0.3440   -0.0480 c3        1 55B      0.116200
      2 OAJ         1.5230    0.1450    0.0170 os        1 55B     -0.324400
      3 CAN         2.0640    0.0570    1.2910 ca        1 55B      0.092100
      4 CAG         1.3170   -0.0950    2.4600 ca        1 55B     -0.186000
      5 CAM         3.4720    0.1130    1.3310 ca        1 55B      0.088100
      6 OAD         4.2560    0.2500    0.2120 oh        1 55B     -0.472100
      7 CAO         4.1200    0.0050    2.5830 ca        1 55B      0.092100
      8 OAK         5.4980    0.0630    2.5350 os        1 55B     -0.324400
      9 CAB         6.1710   -0.0530    3.7840 c3        1 55B      0.116200
     10 CAH         3.3700   -0.1450    3.7520 ca        1 55B     -0.186000
     11 CAL         1.9710   -0.1900    3.6960 ca        1 55B     -0.023800
     12 CAF         1.1690   -0.3490    4.8990 ce        1 55B     -0.118200
     13 CAE         1.5810   -0.0510    6.1380 c2        1 55B     -0.153200
     14 CAI         0.7070   -0.2360    7.3280 c3        1 55B      0.160600
     15 OAC         1.4650    0.1180    8.4760 oh        1 55B     -0.599800
     16 H1         -0.0740    0.5050   -1.1400 h1        1 55B      0.045367
     17 H2         -0.4210   -0.5670    0.3130 h1        1 55B      0.045367
     18 H3         -0.1880    1.2400    0.5450 h1        1 55B      0.045367
     19 H4          0.2200   -0.1380    2.4190 ha        1 55B      0.142000
     20 H5          3.6650    0.3640   -0.5490 ho        1 55B      0.431000
     21 H6          5.8900    0.7870    4.4650 h1        1 55B      0.045367
     22 H7          5.9520   -1.0380    4.2630 h1        1 55B      0.045367
     23 H8          7.2520    0.0160    3.4990 h1        1 55B      0.045367
     24 H9          3.8760   -0.2350    4.7240 ha        1 55B      0.142000
     25 H10         0.1490   -0.7380    4.7300 ha        1 55B      0.123000
     26 H12         2.5830    0.3550    6.3540 ha        1 55B      0.147000
     27 H14         0.3700   -1.3070    7.4110 h1        1 55B      0.032200
     28 H15        -0.2030    0.4230    7.2550 h1        1 55B      0.032200
     29 H16         0.8820    0.0000    9.2350 ho        1 55B      0.402000
@<TRIPOS>BOND
     1    1    2 1   
     2    1   16 1   
     3    1   17 1   
     4    1   18 1   
     5    2    3 1   
     6    3    4 ar  
     7    3    5 ar  
     8    4   11 ar  
     9    4   19 1   
    10    5    6 1   
    11    5    7 ar  
    12    6   20 1   
    13    7    8 1   
    14    7   10 ar  
    15    8    9 1   
    16    9   21 1   
    17    9   22 1   
    18    9   23 1   
    19   10   11 ar  
    20   10   24 1   
    21   11   12 1   
    22   12   13 2   
    23   12   25 1   
    24   13   14 1   
    25   13   26 1   
    26   14   15 1   
    27   14   27 1   
    28   14   28 1   
    29   15   29 1   
@<TRIPOS>SUBSTRUCTURE
     1 55B         1 TEMP              0 ****  ****    0 ROOT
