@<TRIPOS>MOLECULE
molecule
   29    29     1     0     0
SMALL
bcc


@<TRIPOS>ATOM
      1 CAA          0.0000     0.0000     0.0000 c3         1 55B       0.127200
      2 OAJ          1.4290     0.0000     0.0000 os         1 55B      -0.313400
      3 CAN          2.0470     0.0000     1.2120 ca         1 55B       0.152100
      4 CAG          1.2920    -0.0000     2.3720 ca         1 55B      -0.240500
      5 CAM          3.4360    -0.0060     1.2840 ca         1 55B       0.045100
      6 OAD          4.1750    -0.0110     0.1420 oh         1 55B      -0.491100
      7 CAO          4.0710    -0.0060     2.5220 ca         1 55B       0.152100
      8 OAK          5.4290    -0.0110     2.5900 os         1 55B      -0.313400
      9 CAB          6.0130    -0.0100     3.8930 c3         1 55B       0.127200
     10 CAH          3.3200    -0.0000     3.6850 ca         1 55B      -0.240500
     11 CAL          1.9270    -0.0010     3.6150 ca         1 55B       0.011200
     12 CAF          1.1230    -0.0000     4.8560 ce         1 55B      -0.114200
     13 CAE          1.7270    -0.0010     6.0360 c2         1 55B      -0.152200
     14 CAI          0.9080    -0.0010     7.3010 c3         1 55B       0.173600
     15 OAC          1.4480    -0.9540     8.2190 oh         1 55B      -0.605800
     16 H1          -0.3610     0.8840     0.5110 h1         1 55B       0.042867
     17 H2          -0.3610    -0.8850     0.5100 h1         1 55B       0.042867
     18 H3          -0.3610     0.0000    -1.0210 h1         1 55B       0.042867
     19 H4           0.2100    -0.0010     2.3160 ha         1 55B       0.142000
     20 H5           4.3490     0.8770    -0.1240 ho         1 55B       0.412000
     21 H6           5.6920    -0.8930     4.4340 h1         1 55B       0.042867
     22 H7           7.0930    -0.0140     3.8050 h1         1 55B       0.042867
     23 H8           5.6980     0.8760     4.4300 h1         1 55B       0.042867
     24 H9           3.8150    -0.0000     4.6490 ha         1 55B       0.142000
     25 H10          0.0410     0.0000     4.8010 ha         1 55B       0.130000
     26 H12          2.8090    -0.0010     6.0910 ha         1 55B       0.140000
     27 H14          0.9350     0.9860     7.7480 h1         1 55B       0.027700
     28 H15         -0.1160    -0.2640     7.0680 h1         1 55B       0.027700
     29 H16          0.9820    -0.9020     9.0370 ho         1 55B       0.404000
@<TRIPOS>BOND
     1     6     5 1
     2     1     2 1
     3     2     3 1
     4     5     3 ar
     5     5     7 ar
     6     3     4 ar
     7     7     8 1
     8     7    10 ar
     9     4    11 ar
    10     8     9 1
    11    11    10 ar
    12    11    12 1
    13    12    13 2
    14    13    14 1
    15    14    15 1
    16     1    16 1
    17     1    17 1
    18     1    18 1
    19     4    19 1
    20     6    20 1
    21     9    21 1
    22     9    22 1
    23     9    23 1
    24    10    24 1
    25    12    25 1
    26    13    26 1
    27    14    27 1
    28    14    28 1
    29    15    29 1
@<TRIPOS>SUBSTRUCTURE
     1 55B         1 TEMP              0 ****  ****    0 ROOT
