@<TRIPOS>MOLECULE
molecule
   41    43     1     0     0
SMALL
bcc


@<TRIPOS>ATOM
      1 C5           0.0000     0.0000     0.0000 ca         1 55C      -0.033000
      2 C3           2.0800     0.0000     1.1830 ca         1 55C      -0.133000
      3 C2           1.4000     0.0100     2.3990 ca         1 55C      -0.135000
      4 C4           1.4050     0.0000     0.0000 ca         1 55C      -0.116000
      5 N1          -7.0460    -2.2250    -0.7410 ns         1 55C      -0.408100
      6 O21         -6.9900    -0.2160     0.2060 o          1 55C      -0.690100
      7 C13         -6.3810    -1.1350    -0.3090 c          1 55C       0.615300
      8 C15         -8.4050    -2.3600    -0.4770 ca         1 55C       0.065600
      9 C17         -8.9660    -1.7460     0.6360 ca         1 55C      -0.163000
     10 C16        -10.3140    -1.8810     0.8950 ca         1 55C      -0.138000
     11 C20        -11.1200    -2.6290     0.0510 ca         1 55C      -0.181000
     12 C19        -10.5830    -3.2450    -1.0590 ca         1 55C      -0.079000
     13 C18         -9.2200    -3.1120    -1.3380 ca         1 55C      -0.135600
     14 C21         -8.6390    -3.7700    -2.5230 c          1 55C       0.889200
     15 O22         -7.4800    -3.5640    -2.8240 o          1 55C      -0.837800
     16 O23         -9.3930    -4.5990    -3.2700 o          1 55C      -0.837800
     17 C12         -4.9280    -1.0580    -0.4590 ce         1 55C      -0.524200
     18 C14         -5.0080     1.1840     0.5880 c3         1 55C      -0.116900
     19 C10         -2.7830     0.0010     0.0390 ca         1 55C      -0.046800
     20 C9          -2.0820     0.0010    -1.1830 ca         1 55C      -0.085000
     21 C8          -0.7250     0.0000    -1.2050 ca         1 55C      -0.125000
     22 C6          -0.6930     0.0050     1.2380 ca         1 55C      -0.035000
     23 C7          -2.0950     0.0050     1.2450 ca         1 55C      -0.106000
     24 C1           0.0400     0.0100     2.4390 ca         1 55C      -0.112000
     25 H1           3.1640     0.0000     1.1780 ha         1 55C       0.121000
     26 H2           1.9620     0.0100     3.3250 ha         1 55C       0.122000
     27 H3           1.9480    -0.0080    -0.9370 ha         1 55C       0.129000
     28 H4          -6.5510    -2.9620    -1.2030 hn         1 55C       0.385500
     29 H5          -8.3430    -1.1600     1.3010 ha         1 55C       0.147000
     30 H6         -10.7460    -1.4000     1.7650 ha         1 55C       0.104000
     31 H7         -12.1770    -2.7300     0.2650 ha         1 55C       0.104000
     32 H8         -11.2170    -3.8260    -1.7170 ha         1 55C       0.154000
     33 H10         -5.5870    -0.5600    -1.1600 ha         1 55C       0.302000
     34 H11         -4.3080     1.9670     0.8520 hc         1 55C       0.065367
     35 H12         -5.7580     1.5820    -0.0850 hc         1 55C       0.065367
     36 H13         -5.4890     0.8120     1.4850 hc         1 55C       0.065367
     37 H14         -2.6320     0.0020    -2.1160 ha         1 55C       0.145000
     38 H15         -0.1990     0.0010    -2.1530 ha         1 55C       0.132000
     39 H16         -2.6320    -0.1310     2.1760 ha         1 55C       0.140000
     40 H17         -0.4770     0.0170     3.3920 ha         1 55C       0.130000
     41 C11         -4.2540     0.0010     0.0370 cf         1 55C       0.157600
@<TRIPOS>BOND
     1    11    10 ar  
     2    11    12 ar  
     3    10     9 ar  
     4    12    13 ar  
     5     9     8 ar  
     6    13     8 ar  
     7    13    14 1   
     8     8     5 1   
     9    15    14 1   
    10    14    16 1   
    11     6     7 2   
    12     5     7 1   
    13     7    17 1   
    14    17    41 2   
    15    18    41 1   
    16    41    19 1   
    17    19    20 ar  
    18    19    23 ar  
    19    20    21 ar  
    20    23    22 ar  
    21    21     1 ar  
    22    22     1 ar  
    23    22    24 ar  
    24     1     4 ar  
    25    24     3 ar  
    26     4     2 ar  
    27     3     2 ar  
    28     2    25 1   
    29     3    26 1   
    30     4    27 1   
    31     5    28 1   
    32     9    29 1   
    33    10    30 1   
    34    11    31 1   
    35    12    32 1   
    36    17    33 1   
    37    18    34 1   
    38    18    35 1   
    39    18    36 1   
    40    20    37 1   
    41    21    38 1   
    42    23    39 1   
    43    24    40 1   
@<TRIPOS>SUBSTRUCTURE
     1 55C         1 TEMP              0 ****  ****    0 ROOT
