@<TRIPOS>MOLECULE
55C
   41    43     1     0     0
SMALL
bcc


@<TRIPOS>ATOM
      1 C5           0.0000     0.0000     0.0000 ca         1 55C      -0.039000
      2 C3           2.0800     0.0000     1.1830 ca         1 55C      -0.112000
      3 C2           1.4000     0.0100     2.3990 ca         1 55C      -0.110000
      4 C4           1.4050     0.0000     0.0000 ca         1 55C      -0.087000
      5 N1          -7.0460    -2.2250    -0.7410 ns         1 55C       0.008900
      6 O21         -6.9900    -0.2160     0.2060 o          1 55C      -0.693100
      7 C13         -6.3810    -1.1350    -0.3090 c          1 55C       0.551300
      8 C15         -8.4050    -2.3600    -0.4770 ca         1 55C      -0.068400
      9 C17         -8.9660    -1.7460     0.6360 ca         1 55C      -0.154000
     10 C16        -10.3140    -1.8810     0.8950 ca         1 55C      -0.110000
     11 C20        -11.1200    -2.6290     0.0510 ca         1 55C      -0.162000
     12 C19        -10.5830    -3.2450    -1.0590 ca         1 55C      -0.048000
     13 C18         -9.2200    -3.1120    -1.3380 ca         1 55C      -0.140600
     14 C21         -8.6390    -3.7700    -2.5230 c          1 55C       0.988200
     15 O22         -7.4800    -3.5640    -2.8240 o          1 55C      -0.887300
     16 O23         -9.3930    -4.5990    -3.2700 o          1 55C      -0.887300
     17 C12         -4.9280    -1.0580    -0.4590 ce         1 55C      -0.207200
     18 C14         -5.0080     1.1840     0.5880 c3         1 55C       0.049100
     19 C10         -2.7830     0.0010     0.0390 ca         1 55C      -0.034800
     20 C9          -2.0820     0.0010    -1.1830 ca         1 55C      -0.080000
     21 C8          -0.7250     0.0000    -1.2050 ca         1 55C      -0.098000
     22 C6          -0.6930     0.0050     1.2380 ca         1 55C      -0.033000
     23 C7          -2.0950     0.0050     1.2450 ca         1 55C      -0.087000
     24 C1           0.0400     0.0100     2.4390 ca         1 55C      -0.086000
     25 H1           3.1640     0.0000     1.1780 ha         1 55C       0.095000
     26 H2           1.9620     0.0100     3.3250 ha         1 55C       0.095000
     27 H3           1.9480    -0.0080    -0.9370 ha         1 55C       0.102000
     28 H4          -6.5520    -2.9610    -1.2050 hn         1 55C       0.224500
     29 H5          -8.3430    -1.1600     1.3010 ha         1 55C       0.135000
     30 H6         -10.7460    -1.4000     1.7650 ha         1 55C       0.081000
     31 H7         -12.1770    -2.7300     0.2650 ha         1 55C       0.083000
     32 H8         -11.2170    -3.8260    -1.7170 ha         1 55C       0.126000
     33 H10         -4.3830    -1.9060    -0.8550 ha         1 55C       0.113000
     34 H11         -5.5380     0.8880     1.4850 hc         1 55C       0.021367
     35 H12         -4.3200     1.9870     0.8240 hc         1 55C       0.021367
     36 H13         -5.7180     1.5240    -0.1560 hc         1 55C       0.021367
     37 H14         -2.6320     0.0030    -2.1160 ha         1 55C       0.115000
     38 H15         -0.1990     0.0010    -2.1530 ha         1 55C       0.104000
     39 H16         -2.6320    -0.1310     2.1760 ha         1 55C       0.114000
     40 H17         -0.4770     0.0170     3.3920 ha         1 55C       0.104000
     41 C11         -4.2540     0.0010     0.0370 cf         1 55C      -0.028400
@<TRIPOS>BOND
     1     1     4 ar  
     2     1    21 ar  
     3     1    22 ar  
     4     2     3 ar  
     5     2     4 ar  
     6     2    25 1   
     7     3    24 ar  
     8     3    26 1   
     9     4    27 1   
    10     5     7 1   
    11     5     8 1   
    12     5    28 1   
    13     6     7 2   
    14     7    17 1   
    15     8     9 ar  
    16     8    13 ar  
    17     9    10 ar  
    18     9    29 1   
    19    10    11 ar  
    20    10    30 1   
    21    11    12 ar  
    22    11    31 1   
    23    12    13 ar  
    24    12    32 1   
    25    13    14 1   
    26    14    15 1   
    27    14    16 1   
    28    17    33 1   
    29    17    41 2   
    30    18    34 1   
    31    18    35 1   
    32    18    36 1   
    33    18    41 1   
    34    19    20 ar  
    35    19    23 ar  
    36    19    41 1   
    37    20    21 ar  
    38    20    37 1   
    39    21    38 1   
    40    22    23 ar  
    41    22    24 ar  
    42    23    39 1   
    43    24    40 1   
@<TRIPOS>SUBSTRUCTURE
     1 55C         1 TEMP              0 ****  ****    0 ROOT
