@<TRIPOS>MOLECULE
molecule
   27    27     1     0     0
SMALL
bcc


@<TRIPOS>ATOM
      1 O2           0.0000     0.0000     0.0000 o          1 55D      -0.555100
      2 C6           1.2130     0.0000     0.0000 c          1 55D       0.650100
      3 C7           1.9670     0.0000     1.3040 c3         1 55D      -0.148400
      4 C8           0.9730     0.0020     2.4680 c3         1 55D      -0.071400
      5 C9           1.7380     0.0020     3.7930 c3         1 55D      -0.095100
      6 N2           1.8870    -0.0070    -1.1670 ns         1 55D      -0.427100
      7 C4           1.1930    -0.0130    -2.3680 cc         1 55D       0.181500
      8 C1           1.7800    -0.0250    -3.6070 cd         1 55D      -0.328600
      9 C5           3.2310    -0.0340    -3.8170 c          1 55D       0.540700
     10 N1           3.7300    -0.0460    -5.0690 nz         1 55D      -0.668400
     11 O1           3.9850    -0.0310    -2.8620 o          1 55D      -0.499100
     12 S1          -0.5060    -0.0140    -2.5070 ss         1 55D       0.164200
     13 C3          -0.4410    -0.0220    -4.2600 cc         1 55D      -0.129100
     14 C2           0.8150    -0.0290    -4.6840 cd         1 55D      -0.179000
     15 H1           2.5900     0.8840     1.3610 hc         1 55D       0.076200
     16 H2           2.5890    -0.8850     1.3620 hc         1 55D       0.076200
     17 H3           0.3510     0.8870     2.4110 hc         1 55D       0.062700
     18 H4           0.3490    -0.8820     2.4120 hc         1 55D       0.062700
     19 H5           2.3620     0.8860     3.8500 hc         1 55D       0.043033
     20 H6           1.0350     0.0030     4.6170 hc         1 55D       0.043033
     21 H7           2.3600    -0.8830     3.8510 hc         1 55D       0.043033
     22 H8           2.8880    -0.0260    -1.1670 hn         1 55D       0.364500
     23 H9           4.6750     0.2810    -5.0550 hn         1 55D       0.475467
     24 H10          3.1790     0.5510    -5.6540 hn         1 55D       0.475467
     25 H11         -1.3090    -0.0220    -4.9080 h4         1 55D       0.198000
     26 H12          0.7670     0.0150    -5.7650 ha         1 55D       0.170000
     27 H13          3.7030    -0.9790    -5.4300 hn         1 55D       0.475467
@<TRIPOS>BOND
     1     5     4 1
     2    11     9 2
     3     3     4 1
     4     3     2 1
     5    10     9 1
     6     9     8 1
     7     6     2 1
     8     6     7 1
     9     2     1 2
    10     8     7 2
    11     8    14 1
    12     7    12 1
    13    14    13 2
    14    12    13 1
    15     3    15 1
    16     3    16 1
    17     4    17 1
    18     4    18 1
    19     5    19 1
    20     5    20 1
    21     5    21 1
    22     6    22 1
    23    10    23 1
    24    10    24 1
    25    13    25 1
    26    14    26 1
    27    27    10 1
@<TRIPOS>SUBSTRUCTURE
     1 55D         1 TEMP              0 ****  ****    0 ROOT
