@<TRIPOS>MOLECULE
55D
   27    27     1     0     0
SMALL
bcc


@<TRIPOS>ATOM
      1 O2           0.0000     0.0000     0.0000 o          1 55D      -0.550100
      2 C6           1.2130     0.0000     0.0000 c          1 55D       0.538100
      3 C7           1.9670     0.0000     1.3040 c3         1 55D      -0.088400
      4 C8           0.9730     0.0020     2.4680 c3         1 55D      -0.016400
      5 C9           1.7380     0.0020     3.7930 c3         1 55D       0.005900
      6 N2           1.8870    -0.0070    -1.1670 ns         1 55D       0.036900
      7 C4           1.1930    -0.0130    -2.3680 cc         1 55D       0.127500
      8 C1           1.7800    -0.0250    -3.6070 cd         1 55D      -0.348600
      9 C5           3.2310    -0.0340    -3.8170 c          1 55D       0.390700
     10 N1           3.7300    -0.0460    -5.0690 nz         1 55D       0.216600
     11 O1           3.9850    -0.0310    -2.8620 o          1 55D      -0.526100
     12 S1          -0.5060    -0.0140    -2.5070 ss         1 55D      -0.046800
     13 C3          -0.4410    -0.0220    -4.2600 cc         1 55D      -0.002100
     14 C2           0.8150    -0.0290    -4.6840 cd         1 55D      -0.158000
     15 H1           2.5900     0.8840     1.3610 hc         1 55D       0.040200
     16 H2           2.5890    -0.8850     1.3620 hc         1 55D       0.040200
     17 H3           0.3510     0.8870     2.4110 hc         1 55D       0.031200
     18 H4           0.3490    -0.8820     2.4120 hc         1 55D       0.031200
     19 H5           2.3620     0.8860     3.8500 hc         1 55D       0.007700
     20 H6           1.0350     0.0030     4.6170 hc         1 55D       0.007700
     21 H7           2.3600    -0.8830     3.8510 hc         1 55D       0.007700
     22 H8           2.8880    -0.0260    -1.1670 hn         1 55D       0.212500
     23 H9           4.6750     0.2810    -5.0550 hn         1 55D       0.242467
     24 H10          3.1790     0.5510    -5.6540 hn         1 55D       0.242467
     25 H11         -1.3090    -0.0220    -4.9080 h4         1 55D       0.170000
     26 H12          0.7670     0.0150    -5.7650 ha         1 55D       0.145000
     27 H13          3.7030    -0.9790    -5.4300 hn         1 55D       0.242467
@<TRIPOS>BOND
     1     1     2 2   
     2     2     3 1   
     3     2     6 1   
     4     3     4 1   
     5     3    15 1   
     6     3    16 1   
     7     4     5 1   
     8     4    17 1   
     9     4    18 1   
    10     5    19 1   
    11     5    20 1   
    12     5    21 1   
    13     6     7 1   
    14     6    22 1   
    15     7     8 2   
    16     7    12 1   
    17     8     9 1   
    18     8    14 1   
    19     9    10 1   
    20     9    11 2   
    21    10    23 1   
    22    10    24 1   
    23    10    27 1   
    24    12    13 1   
    25    13    14 2   
    26    13    25 1   
    27    14    26 1   
@<TRIPOS>SUBSTRUCTURE
     1 55D         1 TEMP              0 ****  ****    0 ROOT
