@<TRIPOS>MOLECULE
55E
   35    37     1     0     0
SMALL
bcc


@<TRIPOS>ATOM
      1 O3           0.0000     0.0000     0.0000 o          1 55E      -0.518100
      2 C2           1.2180     0.0000     0.0000 c          1 55E       0.780900
      3 N4           1.8370     0.0000     1.1870 ne         1 55E      -0.583100
      4 C5           3.1460    -0.0000     1.2890 cf         1 55E       0.509900
      5 C6           3.8080    -0.0010     2.5980 ca         1 55E      -0.196900
      6 C21          3.0430    -0.0010     3.7730 ca         1 55E      -0.010000
      7 C19          3.6650    -0.0020     4.9880 ca         1 55E      -0.130300
      8 C20          2.8440    -0.0040     6.2530 c3         1 55E       0.072200
      9 C17          5.0540    -0.0030     5.0630 ca         1 55E       0.166100
     10 O18          5.6660    -0.0050     6.2730 oh         1 55E      -0.486100
     11 C16          5.8180    -0.0040     3.9000 ca         1 55E      -0.181000
     12 C15          5.2070    -0.0080     2.6790 ca         1 55E      -0.053000
     13 C7           3.9470     0.0000     0.0010 c3         1 55E      -0.212000
     14 C8           3.1450    -0.0000    -1.2870 ce         1 55E       0.502900
     15 N1           1.8380    -0.0050    -1.1850 nf         1 55E      -0.575100
     16 C9           3.8090    -0.0000    -2.5980 ca         1 55E      -0.169900
     17 C14          5.2060    -0.0070    -2.6800 ca         1 55E      -0.057500
     18 C13          5.8190    -0.0070    -3.9150 ca         1 55E      -0.111500
     19 C12          5.0580    -0.0000    -5.0710 ca         1 55E      -0.071000
     20 C11          3.6760     0.0060    -4.9990 ca         1 55E      -0.111500
     21 C10          3.0460     0.0000    -3.7730 ca         1 55E      -0.057500
     22 H21          1.9640     0.0660     3.7170 ha         1 55E       0.138000
     23 H20          3.2170    -0.7680     6.9250 hc         1 55E       0.012700
     24 H20A         2.9170     0.9650     6.7320 hc         1 55E       0.012700
     25 H20B         1.8080    -0.2090     6.0110 hc         1 55E       0.012700
     26 HO18         6.2880     0.7020     6.3120 ho         1 55E       0.407000
     27 H16          6.8990    -0.0060     3.9630 ha         1 55E       0.115000
     28 H15          5.8030    -0.0080     1.7740 ha         1 55E       0.103000
     29 H7           4.4730    -0.9470     0.0010 hc         1 55E       0.068200
     30 H7A          4.4720     0.9480     0.0010 hc         1 55E       0.068200
     31 H14          5.8040    -0.0120    -1.7770 ha         1 55E       0.118000
     32 H13          6.9000    -0.0120    -3.9800 ha         1 55E       0.108000
     33 H12          5.5470     0.0020    -6.0380 ha         1 55E       0.104000
     34 H11          3.0880     0.0090    -5.9080 ha         1 55E       0.108000
     35 H10          1.9640     0.0050    -3.7180 ha         1 55E       0.118000
@<TRIPOS>BOND
     1     1     2 2   
     2     2     3 1   
     3     2    15 1   
     4     3     4 2   
     5     4     5 1   
     6     4    13 1   
     7     5     6 ar  
     8     5    12 ar  
     9     6     7 ar  
    10     6    22 1   
    11     7     8 1   
    12     7     9 ar  
    13     8    23 1   
    14     8    24 1   
    15     8    25 1   
    16     9    10 1   
    17     9    11 ar  
    18    10    26 1   
    19    11    12 ar  
    20    11    27 1   
    21    12    28 1   
    22    13    14 1   
    23    13    29 1   
    24    13    30 1   
    25    14    15 2   
    26    14    16 1   
    27    16    17 ar  
    28    16    21 ar  
    29    17    18 ar  
    30    17    31 1   
    31    18    19 ar  
    32    18    32 1   
    33    19    20 ar  
    34    19    33 1   
    35    20    21 ar  
    36    20    34 1   
    37    21    35 1   
@<TRIPOS>SUBSTRUCTURE
     1 55E         1 TEMP              0 ****  ****    0 ROOT
