@<TRIPOS>MOLECULE
molecule
   42    45     1     0     0
SMALL
bcc


@<TRIPOS>ATOM
      1 C1           0.0000     0.0000     0.0000 ca         1 55F       0.298900
      2 C2           1.3960     0.0000     0.0000 ca         1 55F       0.299900
      3 N3           2.0680     0.0000     1.1290 nb         1 55F      -0.643000
      4 C4           1.4100    -0.0010     2.2930 ca         1 55F       0.303300
      5 C5          -0.0090    -0.0000     2.2940 ca         1 55F       0.300300
      6 N6          -0.6700     0.0050     1.1300 nb         1 55F      -0.641000
      7 C7           2.1080    -0.0010     3.5150 ca         1 55F      -0.165300
      8 C8           1.4250    -0.0030     4.6880 ca         1 55F      -0.073000
      9 C9           0.0170    -0.0020     4.7020 ca         1 55F       0.019000
     10 C10         -0.6980    -0.0010     3.5140 ca         1 55F      -0.154300
     11 C11         -0.7020    -0.0040     5.9910 cc         1 55F      -0.150600
     12 C12         -0.4190    -0.7840     7.0970 cd         1 55F       0.292300
     13 N13         -1.3140    -0.4740     8.0540 nd         1 55F      -0.725000
     14 C14         -2.1310     0.4490     7.6080 cc         1 55F       0.533400
     15 N15         -1.7860     0.7760     6.3340 na         1 55F      -0.281900
     16 C16          0.6690    -1.7820     7.2090 ca         1 55F       0.401300
     17 C17          1.1790    -2.1100     8.4650 ca         1 55F      -0.203300
     18 C18          2.1960    -3.0430     8.5540 ca         1 55F      -0.135000
     19 C19          2.6730    -3.6210     7.3810 ca         1 55F       0.004600
     20 C20          2.1200    -3.2480     6.1680 ca         1 55F       0.399600
     21 N21          1.1480    -2.3590     6.1130 nb         1 55F      -0.669000
     22 N22         -3.1780     1.0090     8.3260 ns         1 55F      -0.528400
     23 C23          2.6330    -3.8690     4.8960 c3         1 55F      -0.140400
     24 F24          3.6650    -4.5360     7.4270 f          1 55F      -0.134900
     25 C25         -3.9530     1.9540     7.7590 c          1 55F       0.668100
     26 O26         -3.7360     2.3150     6.6220 o          1 55F      -0.615100
     27 C27         -5.0910     2.5610     8.5380 c3         1 55F      -0.166100
     28 H1          -0.5360    -0.0000    -0.9410 h4         1 55F       0.030100
     29 H2           1.9310    -0.0040    -0.9420 h4         1 55F       0.029100
     30 H7           3.1910    -0.0020     3.5200 ha         1 55F       0.151000
     31 H8           1.9700    -0.0040     5.6240 ha         1 55F       0.144000
     32 H10         -1.7810    -0.0010     3.5300 ha         1 55F       0.153000
     33 H17          0.7850    -1.6410     9.3580 ha         1 55F       0.161000
     34 H18          2.6130    -3.3180     9.5160 ha         1 55F       0.152000
     35 HN22        -3.3620     0.7050     9.2620 hn         1 55F       0.354500
     36 H23          3.4910    -3.3110     4.5410 hc         1 55F       0.058033
     37 H23A         2.9230    -4.8950     5.0860 hc         1 55F       0.058033
     38 H23B         1.8530    -3.8480     4.1440 hc         1 55F       0.058033
     39 H27         -4.7050     3.0260     9.4370 hc         1 55F       0.070367
     40 H27A        -5.5870     3.3080     7.9300 hc         1 55F       0.070367
     41 H27B        -5.7980     1.7870     8.8080 hc         1 55F       0.070367
     42 H15         -2.2390     1.4520     5.7510 hn         1 55F       0.343700
@<TRIPOS>BOND
     1     1    28 1
     2     2     1 ar
     3     2    29 1
     4     3     2 ar
     5     4     3 ar
     6     4     5 ar
     7     5     6 ar
     8     6     1 ar
     9     7     4 ar
    10     7    30 1
    11     8     7 ar
    12     8     9 ar
    13     8    31 1
    14     9    10 ar
    15    10     5 ar
    16    10    32 1
    17    11     9 1
    18    11    15 1
    19    12    11 2
    20    13    12 1
    21    13    14 2
    22    14    22 1
    23    14    15 1
    24    16    12 1
    25    16    17 ar
    26    17    33 1
    27    18    17 ar
    28    18    34 1
    29    19    18 ar
    30    20    19 ar
    31    20    21 ar
    32    21    16 ar
    33    22    25 1
    34    22    35 1
    35    23    20 1
    36    23    36 1
    37    23    37 1
    38    23    38 1
    39    24    19 1
    40    25    26 2
    41    27    25 1
    42    27    39 1
    43    27    40 1
    44    27    41 1
    45    15    42 1
@<TRIPOS>SUBSTRUCTURE
     1 55F         1 TEMP              0 ****  ****    0 ROOT
