@<TRIPOS>MOLECULE
55F
   42    45     1     0     0
SMALL
bcc


@<TRIPOS>ATOM
      1 C1           0.0000     0.0000     0.0000 ca         1 55F       0.287900
      2 C2           1.3960     0.0000     0.0000 ca         1 55F       0.284900
      3 N3           2.0680     0.0000     1.1290 nb         1 55F      -0.536000
      4 C4           1.4100    -0.0010     2.2930 ca         1 55F       0.261300
      5 C5          -0.0090    -0.0000     2.2940 ca         1 55F       0.267300
      6 N6          -0.6700     0.0050     1.1300 nb         1 55F      -0.537000
      7 C7           2.1080    -0.0010     3.5150 ca         1 55F      -0.137300
      8 C8           1.4250    -0.0030     4.6880 ca         1 55F      -0.061000
      9 C9           0.0170    -0.0020     4.7020 ca         1 55F       0.039000
     10 C10         -0.6980    -0.0010     3.5140 ca         1 55F      -0.143300
     11 C11         -0.7020    -0.0040     5.9910 cc         1 55F      -0.339600
     12 C12         -0.4190    -0.7840     7.0970 cd         1 55F       0.261300
     13 N13         -1.3140    -0.4740     8.0540 nd         1 55F      -0.637000
     14 C14         -2.1310     0.4490     7.6080 cc         1 55F       0.167400
     15 N15         -1.7860     0.7760     6.3340 na         1 55F       0.261100
     16 C16          0.6690    -1.7820     7.2090 ca         1 55F       0.360300
     17 C17          1.1790    -2.1100     8.4650 ca         1 55F      -0.177300
     18 C18          2.1960    -3.0430     8.5540 ca         1 55F      -0.101000
     19 C19          2.6730    -3.6210     7.3810 ca         1 55F      -0.016400
     20 C20          2.1200    -3.2480     6.1680 ca         1 55F       0.350600
     21 N21          1.1480    -2.3590     6.1130 nb         1 55F      -0.551000
     22 N22         -3.1780     1.0090     8.3260 ns         1 55F      -0.059400
     23 C23          2.6330    -3.8690     4.8960 c3         1 55F      -0.042400
     24 F24          3.6650    -4.5360     7.4270 f          1 55F      -0.120900
     25 C25         -3.9530     1.9540     7.7590 c          1 55F       0.559100
     26 O26         -3.7360     2.3150     6.6220 o          1 55F      -0.668100
     27 C27         -5.0910     2.5610     8.5380 c3         1 55F      -0.063100
     28 H1          -0.5360    -0.0000    -0.9410 h4         1 55F      -0.012900
     29 H2           1.9310    -0.0040    -0.9420 h4         1 55F      -0.012900
     30 H7           3.1910    -0.0020     3.5200 ha         1 55F       0.119000
     31 H8           1.9700    -0.0040     5.6240 ha         1 55F       0.114000
     32 H10         -1.7810    -0.0010     3.5300 ha         1 55F       0.120000
     33 H17          0.7850    -1.6410     9.3580 ha         1 55F       0.132000
     34 H18          2.6130    -3.3180     9.5160 ha         1 55F       0.123000
     35 HN22        -3.3620     0.7050     9.2620 hn         1 55F       0.184500
     36 H23          3.4910    -3.3110     4.5410 hc         1 55F       0.019367
     37 H23A         2.9230    -4.8950     5.0860 hc         1 55F       0.019367
     38 H23B         1.8530    -3.8480     4.1440 hc         1 55F       0.019367
     39 H27         -4.7050     3.0260     9.4370 hc         1 55F       0.028700
     40 H27A        -5.5870     3.3080     7.9300 hc         1 55F       0.028700
     41 H27B        -5.7980     1.7870     8.8080 hc         1 55F       0.028700
     42 H15         -2.2390     1.4520     5.7510 hn         1 55F       0.179700
@<TRIPOS>BOND
     1     1     2 ar  
     2     1     6 ar  
     3     1    28 1   
     4     2     3 ar  
     5     2    29 1   
     6     3     4 ar  
     7     4     5 ar  
     8     4     7 ar  
     9     5     6 ar  
    10     5    10 ar  
    11     7     8 ar  
    12     7    30 1   
    13     8     9 ar  
    14     8    31 1   
    15     9    10 ar  
    16     9    11 1   
    17    10    32 1   
    18    11    12 2   
    19    11    15 1   
    20    12    13 1   
    21    12    16 1   
    22    13    14 2   
    23    14    15 1   
    24    14    22 1   
    25    15    42 1   
    26    16    17 ar  
    27    16    21 ar  
    28    17    18 ar  
    29    17    33 1   
    30    18    19 ar  
    31    18    34 1   
    32    19    20 ar  
    33    19    24 1   
    34    20    21 ar  
    35    20    23 1   
    36    22    25 1   
    37    22    35 1   
    38    23    36 1   
    39    23    37 1   
    40    23    38 1   
    41    25    26 2   
    42    25    27 1   
    43    27    39 1   
    44    27    40 1   
    45    27    41 1   
@<TRIPOS>SUBSTRUCTURE
     1 55F         1 TEMP              0 ****  ****    0 ROOT
