@<TRIPOS>MOLECULE
55H
   30    33     1     0     0
SMALL
bcc


@<TRIPOS>ATOM
      1 O            0.0000     0.0000     0.0000 o          1 55H      -0.685500
      2 C1           1.2190     0.0000     0.0000 c          1 55H       0.602700
      3 C5           1.9110     0.0000     1.2260 cc         1 55H      -0.238200
      4 C4           3.2690    -0.0010     1.2510 cd         1 55H       0.031800
      5 C3           3.9820    -0.0010     0.0310 cd         1 55H      -0.320100
      6 C6           5.3460    -0.0020    -0.2860 cc         1 55H      -0.118300
      7 N2           5.4350    -0.0010    -1.6430 na         1 55H       0.518400
      8 N3           4.1410    -0.0010    -2.1750 nc         1 55H      -0.698800
      9 C2           3.2680    -0.0010    -1.1960 cd         1 55H       0.361200
     10 N1           1.8800    -0.0050    -1.1730 ns         1 55H      -0.024400
     11 C7           6.4640    -0.0010     0.6630 cc         1 55H      -0.051400
     12 S            6.6020     1.0070     2.1020 ss         1 55H      -0.275300
     13 C9           8.1620     0.2740     2.4650 cc         1 55H       0.541900
     14 N4           8.4490    -0.6100     1.5500 nd         1 55H      -0.562000
     15 C8           7.5810    -0.7870     0.5900 cd         1 55H       0.372200
     16 C10          9.0120     0.6090     3.6250 ca         1 55H      -0.262800
     17 C14          8.6060     1.5750     4.5480 ca         1 55H       0.423200
     18 N5           9.3650     1.8740     5.5820 nb         1 55H      -0.579000
     19 C13         10.5240     1.2810     5.7900 ca         1 55H       0.421200
     20 C12         10.9970     0.3120     4.9220 ca         1 55H      -0.226300
     21 C11         10.2350    -0.0420     3.8230 ca         1 55H      -0.026000
     22 H1           1.3570     0.0010     2.1570 ha         1 55H       0.137000
     23 H2           3.7990    -0.0010     2.1950 ha         1 55H       0.111000
     24 H3           6.2840    -0.0010    -2.1730 hn         1 55H       0.151700
     25 H4           1.3670    -0.0110    -2.0320 hn         1 55H       0.177500
     26 H5           7.7380    -1.5000    -0.2100 h4         1 55H       0.001100
     27 H6           7.6600     2.0850     4.4110 h4         1 55H      -0.010900
     28 H7          11.1170     1.5590     6.6530 h4         1 55H      -0.017900
     29 H8          11.9500    -0.1690     5.1060 ha         1 55H       0.118000
     30 H9          10.5810    -0.7970     3.1270 ha         1 55H       0.128000
@<TRIPOS>BOND
     1     1     2 2   
     2     2     3 1   
     3     2    10 1   
     4     3     4 2   
     5     3    22 1   
     6     4     5 1   
     7     4    23 1   
     8     5     6 2   
     9     5     9 1   
    10     6     7 1   
    11     6    11 1   
    12     7     8 1   
    13     7    24 1   
    14     8     9 2   
    15     9    10 1   
    16    10    25 1   
    17    11    12 1   
    18    11    15 2   
    19    12    13 1   
    20    13    14 2   
    21    13    16 1   
    22    14    15 1   
    23    15    26 1   
    24    16    17 ar  
    25    16    21 ar  
    26    17    18 ar  
    27    17    27 1   
    28    18    19 ar  
    29    19    20 ar  
    30    19    28 1   
    31    20    21 ar  
    32    20    29 1   
    33    21    30 1   
@<TRIPOS>SUBSTRUCTURE
     1 55H         1 TEMP              0 ****  ****    0 ROOT
