@<TRIPOS>MOLECULE
molecule
   30    33     1     0     0
SMALL
bcc


@<TRIPOS>ATOM
      1 O            0.0000     0.0000     0.0000 o          1 55H      -0.637500
      2 C1           1.2190     0.0000     0.0000 c          1 55H       0.712700
      3 C5           1.9110     0.0000     1.2260 cc         1 55H      -0.258200
      4 C4           3.2690    -0.0010     1.2510 cd         1 55H       0.000800
      5 C3           3.9820    -0.0010     0.0310 cd         1 55H      -0.314100
      6 C6           5.3460    -0.0020    -0.2860 cc         1 55H       0.056700
      7 N2           5.4350    -0.0010    -1.6430 na         1 55H      -0.001600
      8 N3           4.1410    -0.0010    -2.1750 nc         1 55H      -0.542800
      9 C2           3.2680    -0.0010    -1.1960 cd         1 55H       0.488200
     10 N1           1.8800    -0.0050    -1.1730 ns         1 55H      -0.503400
     11 C7           6.4640    -0.0010     0.6630 cc         1 55H      -0.119400
     12 S            6.6020     1.0070     2.1020 ss         1 55H      -0.163300
     13 C9           8.1620     0.2740     2.4650 cd         1 55H       0.539900
     14 N4           8.4490    -0.6100     1.5500 nc         1 55H      -0.680000
     15 C8           7.5810    -0.7870     0.5900 cc         1 55H       0.396200
     16 C10          9.0120     0.6090     3.6250 ca         1 55H      -0.262800
     17 C14          8.6060     1.5750     4.5480 ca         1 55H       0.439200
     18 N5           9.3650     1.8740     5.5820 nb         1 55H      -0.685000
     19 C13         10.5240     1.2810     5.7900 ca         1 55H       0.435200
     20 C12         10.9970     0.3120     4.9220 ca         1 55H      -0.258300
     21 C11         10.2350    -0.0420     3.8230 ca         1 55H      -0.046000
     22 H1           1.3570     0.0010     2.1570 ha         1 55H       0.166000
     23 H2           3.7990    -0.0010     2.1950 ha         1 55H       0.137000
     24 H3           6.2840    -0.0010    -2.1730 hn         1 55H       0.343700
     25 H4           1.3670    -0.0110    -2.0320 hn         1 55H       0.344500
     26 H5           7.7380    -1.5000    -0.2100 h4         1 55H       0.048100
     27 H6           7.6600     2.0850     4.4110 h4         1 55H       0.026100
     28 H7          11.1170     1.5590     6.6530 h4         1 55H       0.029100
     29 H8          11.9500    -0.1690     5.1060 ha         1 55H       0.147000
     30 H9          10.5810    -0.7970     3.1270 ha         1 55H       0.163000
@<TRIPOS>BOND
     1     1     2 2   
     2     3     2 1   
     3     3     4 2   
     4     2    10 1   
     5     4     5 1   
     6    10     9 1   
     7     5     9 1   
     8     5     6 2   
     9     9     8 2   
    10    15    14 1   
    11    15    11 2   
    12    14    13 2   
    13     6    11 1   
    14     6     7 1   
    15    11    12 1   
    16     8     7 1   
    17    13    12 1   
    18    13    16 1   
    19    21    16 ar  
    20    21    20 ar  
    21    16    17 ar  
    22    17    18 ar  
    23    20    19 ar  
    24    19    18 ar  
    25     3    22 1   
    26     4    23 1   
    27     7    24 1   
    28    10    25 1   
    29    15    26 1   
    30    17    27 1   
    31    19    28 1   
    32    20    29 1   
    33    21    30 1   
@<TRIPOS>SUBSTRUCTURE
     1 55H         1 TEMP              0 ****  ****    0 ROOT
