@<TRIPOS>MOLECULE
molecule
   53    57     1     0     0
SMALL
bcc


@<TRIPOS>ATOM
      1 C1           0.0000     0.0000     0.0000 ca         1 55J       0.135400
      2 C2           1.4050     0.0000     0.0000 ca         1 55J      -0.092200
      3 C3           2.0990     0.0000     1.2000 ca         1 55J      -0.107000
      4 C11         -1.3470    -2.2350     3.1020 ca         1 55J      -0.280300
      5 C12         -2.0920    -4.5550     2.6190 cc         1 55J       0.389500
      6 C13          0.6480     0.0000    -2.0820 cc         1 55J       0.668700
      7 C15         -0.6190     0.1250    -4.1250 ca         1 55J       0.197600
      8 C16         -0.7750    -0.3930    -5.4040 ca         1 55J      -0.163500
      9 C17         -1.9890    -0.2710    -6.0530 ca         1 55J      -0.057000
     10 C18         -3.0460     0.3670    -5.4310 ca         1 55J      -0.208300
     11 C19         -2.8930     0.8840    -4.1580 ca         1 55J      -0.057000
     12 C20         -1.6830     0.7660    -3.5030 ca         1 55J      -0.163500
     13 C21         -1.6250    -5.9330     1.0210 cc         1 55J       0.382200
     14 C22         -2.4790    -6.5740     1.8470 cd         1 55J      -0.333900
     15 C23         -4.3680     0.4980    -6.1430 c3         1 55J       0.676200
     16 C24         -3.0040    -7.9770     1.6800 c3         1 55J       0.710200
     17 C4           1.4100    -0.0000     2.3940 ca         1 55J      -0.126000
     18 C5           0.0190    -0.0010     2.4040 ca         1 55J       0.079100
     19 C6          -0.6880     0.0060     1.2160 ca         1 55J      -0.100000
     20 C7          -1.3790    -1.1010     3.9060 ca         1 55J       0.167100
     21 C8          -2.1780    -1.1210     5.0480 ca         1 55J      -0.275300
     22 C9          -2.9080    -2.2550     5.3440 ca         1 55J       0.453200
     23 N1          -2.8590    -3.3160     4.5630 nb         1 55J      -0.731000
     24 C10         -2.1140    -3.3400     3.4630 ca         1 55J       0.423300
     25 N2          -0.4010     0.0000    -1.2980 nd         1 55J      -0.650100
     26 N3           1.7890    -0.0000    -1.3330 na         1 55J      -0.181300
     27 N4           0.6060    -0.0010    -3.4630 nu         1 55J      -0.722600
     28 N5          -1.4020    -4.7100     1.5110 nc         1 55J      -0.683000
     29 N6          -2.7780    -5.7090     2.8630 na         1 55J      -0.244900
     30 F1          -4.1500     0.5630    -7.5230 f          1 55J      -0.225633
     31 F2          -5.1680    -0.6110    -5.8480 f          1 55J      -0.225633
     32 F3          -5.0130     1.6640    -5.7170 f          1 55J      -0.225633
     33 F4          -3.2600    -8.5300     2.9400 f          1 55J      -0.218300
     34 F5          -4.1860    -7.9470     0.9340 f          1 55J      -0.218300
     35 F6          -2.0510    -8.7550     1.0150 f          1 55J      -0.218300
     36 H1           3.1830     0.0010     1.1990 ha         1 55J       0.132000
     37 H2          -0.5990    -2.3260     2.3240 ha         1 55J       0.180000
     38 H3           3.8540     0.0990    -1.0130 h1         1 55J       0.053367
     39 H4           3.3550    -0.9290    -2.3630 h1         1 55J       0.053367
     40 H5           3.2950     0.8320    -2.5230 h1         1 55J       0.053367
     41 H6           0.0530    -0.8930    -5.8910 ha         1 55J       0.158500
     42 H7          -2.1120    -0.6760    -7.0500 ha         1 55J       0.149500
     43 H8          -3.7240     1.3830    -3.6740 ha         1 55J       0.149500
     44 H9          -1.5650     1.1720    -2.5060 ha         1 55J       0.158500
     45 H10         -1.1910    -6.3420     0.1160 h4         1 55J       0.055100
     46 H11          1.9550     0.0030     3.3310 ha         1 55J       0.148000
     47 H12         -1.7650     0.1210     1.2280 ha         1 55J       0.159000
     48 H13         -2.2270    -0.2540     5.6970 ha         1 55J       0.155000
     49 H14         -3.5290    -2.2740     6.2310 h4         1 55J       0.031100
     50 H15          1.4520    -0.0990    -3.9890 hn         1 55J       0.456800
     51 H17         -3.3860    -5.8880     3.6370 hn         1 55J       0.327700
     52 O1          -0.6490    -0.0020     3.5870 os         1 55J      -0.233200
     53 C14          3.1630     0.0000    -1.8410 c3         1 55J       0.037600
@<TRIPOS>BOND
     1    33    16 1   
     2    16    34 1   
     3    16    14 1   
     4    16    35 1   
     5    13    14 2   
     6    13    28 1   
     7    14    29 1   
     8    28     5 2   
     9    29     5 1   
    10     5    24 1   
    11    24    23 ar  
    12    24     4 ar  
    13    17     3 ar  
    14    17    18 ar  
    15    23    22 ar  
    16     4    20 ar  
    17     3     2 ar  
    18    22    21 ar  
    19    20    52 1   
    20    20    21 ar  
    21    52    18 1   
    22    18    19 ar  
    23    53    26 1   
    24     2    26 1   
    25     2     1 ar  
    26    26     6 1   
    27    19     1 ar  
    28     1    25 1   
    29     6    25 2   
    30     6    27 1   
    31    27     7 1   
    32     7    12 ar  
    33     7     8 ar  
    34    12    11 ar  
    35     8     9 ar  
    36    11    10 ar  
    37     9    10 ar  
    38    10    15 1   
    39    15    31 1   
    40    15    30 1   
    41    15    32 1   
    42     3    36 1   
    43     4    37 1   
    44    53    38 1   
    45    53    39 1   
    46    53    40 1   
    47     8    41 1   
    48     9    42 1   
    49    11    43 1   
    50    12    44 1   
    51    13    45 1   
    52    17    46 1   
    53    19    47 1   
    54    21    48 1   
    55    22    49 1   
    56    27    50 1   
    57    29    51 1   
@<TRIPOS>SUBSTRUCTURE
     1 55J         1 TEMP              0 ****  ****    0 ROOT
