@<TRIPOS>MOLECULE
55J
   53    57     1     0     0
SMALL
bcc


@<TRIPOS>ATOM
      1 C1           0.0000     0.0000     0.0000 ca         1 55J       0.114400
      2 C2           1.4050     0.0000     0.0000 ca         1 55J      -0.261200
      3 C3           2.0990     0.0000     1.2000 ca         1 55J      -0.063000
      4 C11         -1.3470    -2.2350     3.1020 ca         1 55J      -0.271300
      5 C12         -2.0920    -4.5550     2.6190 cc         1 55J       0.160500
      6 C13          0.6480     0.0000    -2.0820 cc         1 55J       0.328700
      7 C15         -0.6190     0.1250    -4.1250 ca         1 55J       0.043600
      8 C16         -0.7750    -0.3930    -5.4040 ca         1 55J      -0.147000
      9 C17         -1.9890    -0.2710    -6.0530 ca         1 55J      -0.014500
     10 C18         -3.0460     0.3670    -5.4310 ca         1 55J      -0.241300
     11 C19         -2.8930     0.8840    -4.1580 ca         1 55J      -0.014500
     12 C20         -1.6830     0.7660    -3.5030 ca         1 55J      -0.147000
     13 C21         -1.6250    -5.9330     1.0210 cd         1 55J       0.399200
     14 C22         -2.4790    -6.5740     1.8470 cc         1 55J      -0.564900
     15 C23         -4.3680     0.4980    -6.1430 c3         1 55J       0.643200
     16 C24         -3.0040    -7.9770     1.6800 c3         1 55J       0.688200
     17 C4           1.4100    -0.0000     2.3940 ca         1 55J      -0.112000
     18 C5           0.0190    -0.0010     2.4040 ca         1 55J       0.086100
     19 C6          -0.6880     0.0060     1.2160 ca         1 55J      -0.079000
     20 C7          -1.3790    -1.1010     3.9060 ca         1 55J       0.176100
     21 C8          -2.1780    -1.1210     5.0480 ca         1 55J      -0.258300
     22 C9          -2.9080    -2.2550     5.3440 ca         1 55J       0.445200
     23 N1          -2.8590    -3.3160     4.5630 nb         1 55J      -0.638000
     24 C10         -2.1140    -3.3400     3.4630 ca         1 55J       0.387300
     25 N2          -0.4010     0.0000    -1.2980 nd         1 55J      -0.578100
     26 N3           1.7890    -0.0000    -1.3330 na         1 55J       0.269700
     27 N4           0.6060    -0.0010    -3.4630 nu         1 55J      -0.250600
     28 N5          -1.4020    -4.7100     1.5110 nd         1 55J      -0.607000
     29 N6          -2.7780    -5.7090     2.8630 na         1 55J       0.341100
     30 F1          -4.1500     0.5630    -7.5230 f          1 55J      -0.210300
     31 F2          -5.1680    -0.6110    -5.8480 f          1 55J      -0.210300
     32 F3          -5.0130     1.6640    -5.7170 f          1 55J      -0.210300
     33 F4          -3.2600    -8.5300     2.9400 f          1 55J      -0.206300
     34 F5          -4.1860    -7.9470     0.9340 f          1 55J      -0.206300
     35 F6          -2.0510    -8.7550     1.0150 f          1 55J      -0.206300
     36 H1           3.1830     0.0010     1.1990 ha         1 55J       0.103000
     37 H2          -0.5990    -2.3260     2.3240 ha         1 55J       0.160000
     38 H3           3.8540     0.0990    -1.0130 h1         1 55J       0.021700
     39 H4           3.3550    -0.9290    -2.3630 h1         1 55J       0.021700
     40 H5           3.2950     0.8320    -2.5230 h1         1 55J       0.021700
     41 H6           0.0530    -0.8930    -5.8910 ha         1 55J       0.135000
     42 H7          -2.1120    -0.6760    -7.0500 ha         1 55J       0.116000
     43 H8          -3.7240     1.3830    -3.6740 ha         1 55J       0.116000
     44 H9          -1.5650     1.1720    -2.5060 ha         1 55J       0.135000
     45 H10         -1.1910    -6.3420     0.1160 h4         1 55J       0.012100
     46 H11          1.9550     0.0030     3.3310 ha         1 55J       0.117000
     47 H12         -1.7650     0.1210     1.2280 ha         1 55J       0.127000
     48 H13         -2.2270    -0.2540     5.6970 ha         1 55J       0.127000
     49 H14         -3.5290    -2.2740     6.2310 h4         1 55J      -0.017900
     50 H15          1.4520    -0.0990    -3.9890 hn         1 55J       0.282800
     51 H17         -3.3860    -5.8880     3.6370 hn         1 55J       0.140700
     52 O1          -0.6490    -0.0020     3.5870 os         1 55J      -0.208200
     53 C14          3.1630     0.0000    -1.8410 c3         1 55J       0.001600
@<TRIPOS>BOND
     1     1     2 ar  
     2     1    19 ar  
     3     1    25 1   
     4     2     3 ar  
     5     2    26 1   
     6     3    17 ar  
     7     3    36 1   
     8     4    20 ar  
     9     4    24 ar  
    10     4    37 1   
    11     5    24 1   
    12     5    28 2   
    13     5    29 1   
    14     6    25 2   
    15     6    26 1   
    16     6    27 1   
    17     7     8 ar  
    18     7    12 ar  
    19     7    27 1   
    20     8     9 ar  
    21     8    41 1   
    22     9    10 ar  
    23     9    42 1   
    24    10    11 ar  
    25    10    15 1   
    26    11    12 ar  
    27    11    43 1   
    28    12    44 1   
    29    13    14 2   
    30    13    28 1   
    31    13    45 1   
    32    14    16 1   
    33    14    29 1   
    34    15    30 1   
    35    15    31 1   
    36    15    32 1   
    37    16    33 1   
    38    16    34 1   
    39    16    35 1   
    40    17    18 ar  
    41    17    46 1   
    42    18    19 ar  
    43    18    52 1   
    44    19    47 1   
    45    20    21 ar  
    46    20    52 1   
    47    21    22 ar  
    48    21    48 1   
    49    22    23 ar  
    50    22    49 1   
    51    23    24 ar  
    52    26    53 1   
    53    27    50 1   
    54    29    51 1   
    55    38    53 1   
    56    39    53 1   
    57    40    53 1   
@<TRIPOS>SUBSTRUCTURE
     1 55J         1 TEMP              0 ****  ****    0 ROOT
