@<TRIPOS>MOLECULE
55K
   49    52     1     0     0
SMALL
bcc


@<TRIPOS>ATOM
      1 CAV          0.0000     0.0000     0.0000 c3         1 55K      -0.017900
      2 CAW          1.5430     0.0000     0.0000 c3         1 55K      -0.030900
      3 CAX          1.9230     0.0000     1.5020 c3         1 55K      -0.030900
      4 CAY          0.8520    -0.9290     2.1250 c3         1 55K      -0.017900
      5 CAU         -0.4390    -0.5900     1.3510 c3         1 55K      -0.179000
      6 CAZ         -1.2500    -1.8420     1.1290 c          1 55K       0.994600
      7 OBB         -1.7370    -2.5210     2.1790 o          1 55K      -0.879300
      8 OBA         -1.4630    -2.2310     0.0050 o          1 55K      -0.879300
      9 CAT         -1.2620     0.4380     2.1300 c3         1 55K       0.260800
     10 NAS         -1.6740    -0.1370     3.4130 n7         1 55K      -0.584100
     11 SAP         -2.2660     0.8440     4.6080 sy         1 55K       1.019200
     12 OAQ         -2.6220    -0.0080     5.6880 o          1 55K      -0.615300
     13 OAR         -1.3440     1.9180     4.7380 o          1 55K      -0.615300
     14 CAC         -3.7680     1.5460     4.0110 ca         1 55K      -0.132500
     15 CAB         -3.8770     2.8940     3.8060 ca         1 55K       0.021000
     16 CAA         -5.0390     3.5050     3.3360 ca         1 55K      -0.142000
     17 CAF         -6.1560     2.7390     3.0520 ca         1 55K      -0.084200
     18 CAE         -6.0290     1.3710     3.2660 ca         1 55K      -0.125000
     19 CAD         -4.8780     0.7330     3.7300 ca         1 55K       0.097000
     20 CAG         -4.9330    -0.6640     3.8780 ca         1 55K      -0.015000
     21 CAH         -6.0920    -1.3190     3.5610 ca         1 55K      -0.148000
     22 CAI         -7.2330    -0.6670     3.0920 ca         1 55K       0.013000
     23 CAJ         -7.2230     0.7090     2.9420 ca         1 55K      -0.174000
     24 CAL         -8.1230     1.7830     2.5030 c          1 55K       0.256800
     25 OAM         -9.2730     1.6440     2.1300 o          1 55K      -0.386000
     26 NAK         -7.4460     2.9580     2.5870 n          1 55K       0.220700
     27 CAN         -7.9990     4.2690     2.2360 c3         1 55K      -0.007700
     28 CAO         -7.7300     4.5560     0.7580 c3         1 55K      -0.017100
     29 H1          -0.3700    -0.6160    -0.8110 hc         1 55K       0.024950
     30 H2          -0.3700     1.0140    -0.0980 hc         1 55K       0.024950
     31 H3           1.9200    -0.8920    -0.4850 hc         1 55K       0.000700
     32 H4           1.9200     0.8920    -0.4850 hc         1 55K       0.000700
     33 H5           1.8500     0.9990     1.9150 hc         1 55K       0.000700
     34 H6           2.9150    -0.4110     1.6450 hc         1 55K       0.000700
     35 H7           0.7290    -0.7090     3.1790 hc         1 55K       0.024950
     36 H8           1.1200    -1.9680     1.9760 hc         1 55K       0.024950
     37 H10         -2.1410     0.7060     1.5560 h1         1 55K      -0.003300
     38 H11         -0.6620     1.3220     2.3070 h1         1 55K      -0.003300
     39 H12         -1.5760    -1.1200     3.5760 hn         1 55K       0.427800
     40 H13         -3.0180     3.5190     4.0200 ha         1 55K       0.123000
     41 H14         -5.0670     4.5780     3.1920 ha         1 55K       0.101000
     42 H15         -4.4270    -1.4560     4.4170 ha         1 55K       0.157000
     43 H16         -6.2200    -2.3910     3.6500 ha         1 55K       0.110000
     44 H17         -8.1020    -1.2750     2.8700 ha         1 55K       0.100000
     45 H18         -7.5290     5.0340     2.8430 h1         1 55K       0.027200
     46 H19         -9.0670     4.2710     2.4160 h1         1 55K       0.027200
     47 H20         -8.4360     5.2960     0.4000 hc         1 55K       0.010700
     48 H21         -6.7210     4.9340     0.6410 hc         1 55K       0.010700
     49 H22         -7.8420     3.6430     0.1860 hc         1 55K       0.010700
@<TRIPOS>BOND
     1     1     2 1   
     2     1     5 1   
     3     1    29 1   
     4     1    30 1   
     5     2     3 1   
     6     2    31 1   
     7     2    32 1   
     8     3     4 1   
     9     3    33 1   
    10     3    34 1   
    11     4     5 1   
    12     4    35 1   
    13     4    36 1   
    14     5     6 1   
    15     5     9 1   
    16     6     7 1   
    17     6     8 1   
    18     9    10 1   
    19     9    37 1   
    20     9    38 1   
    21    10    11 1   
    22    10    39 1   
    23    11    12 2   
    24    11    13 2   
    25    11    14 1   
    26    14    15 ar  
    27    14    19 ar  
    28    15    16 ar  
    29    15    40 1   
    30    16    17 ar  
    31    16    41 1   
    32    17    18 ar  
    33    17    26 1   
    34    18    19 ar  
    35    18    23 ar  
    36    19    20 ar  
    37    20    21 ar  
    38    20    42 1   
    39    21    22 ar  
    40    21    43 1   
    41    22    23 ar  
    42    22    44 1   
    43    23    24 1   
    44    24    25 2   
    45    24    26 1   
    46    26    27 1   
    47    27    28 1   
    48    27    45 1   
    49    27    46 1   
    50    28    47 1   
    51    28    48 1   
    52    28    49 1   
@<TRIPOS>SUBSTRUCTURE
     1 55K         1 TEMP              0 ****  ****    0 ROOT
