@<TRIPOS>MOLECULE
molecule
   49    52     1     0     0
SMALL
bcc


@<TRIPOS>ATOM
      1 CAV          0.0000     0.0000     0.0000 c3         1 55K      -0.062400
      2 CAW          1.5430     0.0000     0.0000 c3         1 55K      -0.088900
      3 CAX          1.9230     0.0000     1.5020 c3         1 55K      -0.088900
      4 CAY          0.8520    -0.9290     2.1250 c3         1 55K      -0.062400
      5 CAU         -0.4390    -0.5900     1.3510 c3         1 55K      -0.170000
      6 CAZ         -1.2500    -1.8420     1.1290 c          1 55K       0.905600
      7 OBB         -1.7370    -2.5210     2.1790 o          1 55K      -0.839800
      8 OBA         -1.4630    -2.2310     0.0050 o          1 55K      -0.839800
      9 CAT         -1.2620     0.4380     2.1300 c3         1 55K       0.265800
     10 NAS         -1.6740    -0.1370     3.4130 n7         1 55K      -0.895100
     11 SAP         -2.2660     0.8440     4.6080 sy         1 55K       1.417200
     12 OAQ         -2.6220    -0.0080     5.6880 o          1 55K      -0.663300
     13 OAR         -1.3440     1.9180     4.7380 o          1 55K      -0.663300
     14 CAC         -3.7680     1.5460     4.0110 ca         1 55K      -0.296500
     15 CAB         -3.8770     2.8940     3.8060 ca         1 55K      -0.001000
     16 CAA         -5.0390     3.5050     3.3360 ca         1 55K      -0.177000
     17 CAF         -6.1560     2.7390     3.0520 ca         1 55K       0.060800
     18 CAE         -6.0290     1.3710     3.2660 ca         1 55K      -0.109000
     19 CAD         -4.8780     0.7330     3.7300 ca         1 55K       0.087000
     20 CAG         -4.9330    -0.6640     3.8780 ca         1 55K      -0.057000
     21 CAH         -6.0920    -1.3190     3.5610 ca         1 55K      -0.156000
     22 CAI         -7.2330    -0.6670     3.0920 ca         1 55K      -0.034000
     23 CAJ         -7.2230     0.7090     2.9420 ca         1 55K      -0.156000
     24 CAL         -8.1230     1.7830     2.5030 c          1 55K       0.326800
     25 OAM         -9.2730     1.6440     2.1300 o          1 55K      -0.340000
     26 NAK         -7.4460     2.9580     2.5870 n          1 55K      -0.166300
     27 CAN         -7.9990     4.2690     2.2360 c3         1 55K       0.057300
     28 CAO         -7.7300     4.5560     0.7580 c3         1 55K      -0.116100
     29 H1          -0.3700    -0.6160    -0.8110 hc         1 55K       0.049700
     30 H2          -0.3700     1.0140    -0.0980 hc         1 55K       0.049700
     31 H3           1.9200    -0.8920    -0.4850 hc         1 55K       0.028200
     32 H4           1.9200     0.8920    -0.4850 hc         1 55K       0.028200
     33 H5           1.8500     0.9990     1.9150 hc         1 55K       0.028200
     34 H6           2.9150    -0.4110     1.6450 hc         1 55K       0.028200
     35 H7           0.7290    -0.7090     3.1790 hc         1 55K       0.049700
     36 H8           1.1200    -1.9680     1.9760 hc         1 55K       0.049700
     37 H10         -2.1410     0.7060     1.5560 h1         1 55K       0.026700
     38 H11         -0.6620     1.3220     2.3070 h1         1 55K       0.026700
     39 H12         -1.5760    -1.1200     3.5760 hn         1 55K       0.510800
     40 H13         -3.0180     3.5190     4.0200 ha         1 55K       0.153000
     41 H14         -5.0670     4.5780     3.1920 ha         1 55K       0.127000
     42 H15         -4.4270    -1.4560     4.4170 ha         1 55K       0.188000
     43 H16         -6.2200    -2.3910     3.6500 ha         1 55K       0.140000
     44 H17         -8.1020    -1.2750     2.8700 ha         1 55K       0.134000
     45 H18         -7.5290     5.0340     2.8430 h1         1 55K       0.057200
     46 H19         -9.0670     4.2710     2.4160 h1         1 55K       0.057200
     47 H20         -8.4360     5.2960     0.4000 hc         1 55K       0.044367
     48 H21         -6.7210     4.9340     0.6410 hc         1 55K       0.044367
     49 H22         -7.8420     3.6430     0.1860 hc         1 55K       0.044367
@<TRIPOS>BOND
     1     2     3 1
     2     2     1 1
     3     3     4 1
     4     1     5 1
     5     8     6 1
     6     4     5 1
     7     5     6 1
     8     5     9 1
     9     6     7 1
    10     9    10 1
    11    10    11 1
    12    12    11 2
    13    11    13 2
    14    11    14 1
    15    14    19 ar
    16    14    15 ar
    17    20    19 ar
    18    20    21 ar
    19    19    18 ar
    20    15    16 ar
    21    21    22 ar
    22    18    17 ar
    23    18    23 ar
    24    16    17 ar
    25    22    23 ar
    26    17    26 1
    27    23    24 1
    28    26    24 1
    29    26    27 1
    30    24    25 2
    31    28    27 1
    32     1    29 1
    33     1    30 1
    34     2    31 1
    35     2    32 1
    36     3    33 1
    37     3    34 1
    38     4    35 1
    39     4    36 1
    40     9    37 1
    41     9    38 1
    42    10    39 1
    43    15    40 1
    44    16    41 1
    45    20    42 1
    46    21    43 1
    47    22    44 1
    48    27    45 1
    49    27    46 1
    50    28    47 1
    51    28    48 1
    52    28    49 1
@<TRIPOS>SUBSTRUCTURE
     1 55K         1 TEMP              0 ****  ****    0 ROOT
