@<TRIPOS>MOLECULE
55M
   49    52     1     0     0
SMALL
bcc


@<TRIPOS>ATOM
      1 C1           0.0000     0.0000     0.0000 ca         1 55M      -0.183400
      2 C2           1.4000     0.0000     0.0000 ca         1 55M       0.136400
      3 C3           2.0500     0.0000     1.2550 ca         1 55M      -0.212300
      4 C11         -4.6900     0.9110     3.7620 c3         1 55M       0.047000
      5 C13         -4.8950     2.9610     2.6900 c          1 55M       0.620500
      6 C14         -3.8490     2.1880     1.9140 c3         1 55M      -0.108400
      7 C15         -4.0440     0.7240     2.3710 c3         1 55M      -0.066700
      8 C17         -2.7000     0.0020     2.4860 c3         1 55M       0.178100
      9 C19         -2.9320    -1.4400     2.9390 c3         1 55M      -0.031100
     10 C20          1.2170     0.0030     4.9000 ca         1 55M      -0.143000
     11 C21          1.8530     0.0030     6.1280 ca         1 55M       0.110100
     12 C22          3.2450     0.0020     6.1890 ca         1 55M       0.133100
     13 C23          3.9930     0.0010     5.0220 ca         1 55M      -0.183000
     14 C24          3.3610     0.0000     3.7950 ca         1 55M      -0.083000
     15 C27         -0.3010     0.0060     7.1360 c3         1 55M       0.240700
     16 C28          5.2990     0.0000     7.3860 c3         1 55M       0.240700
     17 C4           1.2900     0.0010     2.4080 cp         1 55M       0.494800
     18 N5          -0.0410     0.0020     2.3600 nb         1 55M      -0.664000
     19 C6          -0.6930     0.0020     1.2140 ca         1 55M       0.689600
     20 C7           1.9690     0.0010     3.7270 cp         1 55M      -0.163500
     21 S8          -0.5410     0.0060    -1.6740 ss         1 55M      -0.161100
     22 C9           1.0760     0.0070    -2.2230 cc         1 55M       0.436100
     23 N10          1.9030    -0.0010    -1.2430 nd         1 55M      -0.458100
     24 N12         -5.3520     2.2210     3.7140 ns         1 55M      -0.208900
     25 O16         -5.2660     4.0860     2.4270 o          1 55M      -0.666500
     26 O18         -2.0500     0.0020     1.2130 os         1 55M      -0.415100
     27 O26          1.1210     0.0040     7.2740 os         1 55M      -0.291900
     28 H1           3.1320    -0.0010     1.3120 ha         1 55M       0.137000
     29 H2          -3.9280     0.9050     4.5320 h1         1 55M       0.017700
     30 H3          -5.4200     0.1310     3.9430 h1         1 55M       0.017700
     31 H4          -4.0270     2.2780     0.8490 hc         1 55M       0.050200
     32 H5          -2.8560     2.5350     2.1710 hc         1 55M       0.050200
     33 H6          -4.7170     0.2000     1.7030 hc         1 55M       0.051700
     34 H7          -2.0760     0.5120     3.2100 h1         1 55M       0.044700
     35 H8          -2.5290    -2.1210     2.1980 hc         1 55M       0.016700
     36 H9          -2.4350    -1.6050     3.8870 hc         1 55M       0.016700
     37 H10         -3.9940    -1.6170     3.0520 hc         1 55M       0.016700
     38 H11          0.1340     0.0040     4.8500 ha         1 55M       0.138000
     39 H12          5.0750    -0.0000     5.0720 ha         1 55M       0.124000
     40 H13          3.9470    -0.0010     2.8840 ha         1 55M       0.113000
     41 H14         -0.6060     0.8620     6.5460 h1         1 55M      -0.002967
     42 H15         -0.6170    -0.9050     6.6410 h1         1 55M      -0.002967
     43 H16         -0.7590     0.0610     8.1160 h1         1 55M      -0.002967
     44 H17          5.6570     0.8840     6.8710 h1         1 55M      -0.001967
     45 H18          5.6800    -0.0060     8.4000 h1         1 55M      -0.001967
     46 H19          5.6440    -0.8850     6.8660 h1         1 55M      -0.001967
     47 H20          1.3660     0.0140    -3.2660 h5         1 55M       0.031800
     48 H21         -6.0520     2.5230     4.3620 hn         1 55M       0.195500
     49 O25          3.8710     0.0010     7.3960 os         1 55M      -0.291900
@<TRIPOS>BOND
     1     1     2 ar  
     2     1    19 ar  
     3     1    21 1   
     4     2     3 ar  
     5     2    23 1   
     6     3    17 ar  
     7     3    28 1   
     8     4     7 1   
     9     4    24 1   
    10     4    29 1   
    11     4    30 1   
    12     5     6 1   
    13     5    24 1   
    14     5    25 2   
    15     6     7 1   
    16     6    31 1   
    17     6    32 1   
    18     7     8 1   
    19     7    33 1   
    20     8     9 1   
    21     8    26 1   
    22     8    34 1   
    23     9    35 1   
    24     9    36 1   
    25     9    37 1   
    26    10    11 ar  
    27    10    20 ar  
    28    10    38 1   
    29    11    12 ar  
    30    11    27 1   
    31    12    13 ar  
    32    12    49 1   
    33    13    14 ar  
    34    13    39 1   
    35    14    20 ar  
    36    14    40 1   
    37    15    27 1   
    38    15    41 1   
    39    15    42 1   
    40    15    43 1   
    41    16    44 1   
    42    16    45 1   
    43    16    46 1   
    44    16    49 1   
    45    17    18 ar  
    46    17    20 1   
    47    18    19 ar  
    48    19    26 1   
    49    21    22 1   
    50    22    23 2   
    51    22    47 1   
    52    24    48 1   
@<TRIPOS>SUBSTRUCTURE
     1 55M         1 TEMP              0 ****  ****    0 ROOT
