@<TRIPOS>MOLECULE
molecule
   49    52     1     0     0
SMALL
bcc


@<TRIPOS>ATOM
      1 C1           0.0000     0.0000     0.0000 ca         1 55M      -0.214400
      2 C2           1.4000     0.0000     0.0000 ca         1 55M       0.183400
      3 C3           2.0500     0.0000     1.2550 ca         1 55M      -0.232300
      4 C11         -4.6900     0.9110     3.7620 c3         1 55M       0.103000
      5 C13         -4.8950     2.9610     2.6900 c          1 55M       0.699500
      6 C14         -3.8490     2.1880     1.9140 c3         1 55M      -0.163400
      7 C15         -4.0440     0.7240     2.3710 c3         1 55M      -0.089700
      8 C17         -2.7000     0.0020     2.4860 c3         1 55M       0.153100
      9 C19         -2.9320    -1.4400     2.9390 c3         1 55M      -0.115100
     10 C20          1.2170     0.0030     4.9000 ca         1 55M      -0.151000
     11 C21          1.8530     0.0030     6.1280 ca         1 55M       0.107100
     12 C22          3.2450     0.0020     6.1890 ca         1 55M       0.131100
     13 C23          3.9930     0.0010     5.0220 ca         1 55M      -0.196000
     14 C24          3.3610     0.0000     3.7950 ca         1 55M      -0.107000
     15 C27         -0.3010     0.0060     7.1360 c3         1 55M       0.126700
     16 C28          5.2990     0.0000     7.3860 c3         1 55M       0.126700
     17 C4           1.2900     0.0010     2.4080 cp         1 55M       0.528800
     18 N5          -0.0410     0.0020     2.3600 nb         1 55M      -0.777000
     19 C6          -0.6930     0.0020     1.2140 ca         1 55M       0.716600
     20 C7           1.9690     0.0010     3.7270 cp         1 55M      -0.152500
     21 S8          -0.5410     0.0060    -1.6740 ss         1 55M      -0.048100
     22 C9           1.0760     0.0070    -2.2230 cc         1 55M       0.411100
     23 N10          1.9030    -0.0010    -1.2430 nd         1 55M      -0.583100
     24 N12         -5.3520     2.2210     3.7140 ns         1 55M      -0.593900
     25 O16         -5.2660     4.0860     2.4270 o          1 55M      -0.626500
     26 O18         -2.0500     0.0020     1.2130 os         1 55M      -0.436100
     27 O26          1.1210     0.0040     7.2740 os         1 55M      -0.311900
     28 H1           3.1320    -0.0010     1.3120 ha         1 55M       0.159000
     29 H2          -3.9280     0.9050     4.5320 h1         1 55M       0.047200
     30 H3          -5.4200     0.1310     3.9430 h1         1 55M       0.047200
     31 H4          -4.0270     2.2780     0.8490 hc         1 55M       0.083700
     32 H5          -2.8560     2.5350     2.1710 hc         1 55M       0.083700
     33 H6          -4.7170     0.2000     1.7030 hc         1 55M       0.079700
     34 H7          -2.0760     0.5120     3.2100 h1         1 55M       0.076700
     35 H8          -2.5290    -2.1210     2.1980 hc         1 55M       0.048033
     36 H9          -2.4350    -1.6050     3.8870 hc         1 55M       0.048033
     37 H10         -3.9940    -1.6170     3.0520 hc         1 55M       0.048033
     38 H11          0.1340     0.0040     4.8500 ha         1 55M       0.158000
     39 H12          5.0750    -0.0000     5.0720 ha         1 55M       0.144000
     40 H13          3.9470    -0.0010     2.8840 ha         1 55M       0.138000
     41 H14         -0.6060     0.8620     6.5460 h1         1 55M       0.040367
     42 H15         -0.6170    -0.9050     6.6410 h1         1 55M       0.040367
     43 H16         -0.7590     0.0610     8.1160 h1         1 55M       0.040367
     44 H17          5.6570     0.8840     6.8710 h1         1 55M       0.041700
     45 H18          5.6800    -0.0060     8.4000 h1         1 55M       0.041700
     46 H19          5.6440    -0.8850     6.8660 h1         1 55M       0.041700
     47 H20          1.3660     0.0140    -3.2660 h5         1 55M       0.072800
     48 H21         -6.0520     2.5230     4.3620 hn         1 55M       0.339500
     49 O25          3.8710     0.0010     7.3960 os         1 55M      -0.311900
@<TRIPOS>BOND
     1     9     8 1
     2     6     7 1
     3     6     5 1
     4    25     5 2
     5     7     8 1
     6     7     4 1
     7     8    26 1
     8     5    24 1
     9    26    19 1
    10    15    27 1
    11    27    11 1
    12    19    18 ar
    13    19     1 ar
    14    18    17 ar
    15    24     4 1
    16    10    11 ar
    17    10    20 ar
    18    11    12 ar
    19    21     1 1
    20    21    22 1
    21     1     2 ar
    22    17    20 1
    23    17     3 ar
    24    20    14 ar
    25    12    49 1
    26    12    13 ar
    27    49    16 1
    28     2     3 ar
    29     2    23 1
    30    22    23 2
    31    14    13 ar
    32     3    28 1
    33     4    29 1
    34     4    30 1
    35     6    31 1
    36     6    32 1
    37     7    33 1
    38     8    34 1
    39     9    35 1
    40     9    36 1
    41     9    37 1
    42    10    38 1
    43    13    39 1
    44    14    40 1
    45    15    41 1
    46    15    42 1
    47    15    43 1
    48    16    44 1
    49    16    45 1
    50    16    46 1
    51    22    47 1
    52    24    48 1
@<TRIPOS>SUBSTRUCTURE
     1 55M         1 TEMP              0 ****  ****    0 ROOT
