@<TRIPOS>MOLECULE
molecule
   32    32     1     0     0
SMALL
bcc


@<TRIPOS>ATOM
      1 NBI          0.0000     0.0000     0.0000 nz         1 55P      -0.808600
      2 CBJ          1.4700     0.0000     0.0000 c3         1 55P       0.094500
      3 CBL          1.9800     0.0000     1.4420 c3         1 55P      -0.086400
      4 CBT          1.5760    -1.3070     2.1260 c3         1 55P      -0.193700
      5 CBX          2.2860    -2.4800     1.4450 c3         1 55P      -0.079100
      6 CBU          1.9690    -1.2580     3.5790 c          1 55P       0.890600
      7 OXT          1.7110    -2.3020     4.3810 o          1 55P      -0.812300
      8 O            2.5170    -0.2760     4.0230 o          1 55P      -0.812300
      9 CBM          1.9790     1.2500    -0.7210 c3         1 55P      -0.055100
     10 CBN          1.5800     1.1900    -2.1730 ca         1 55P      -0.132300
     11 CBO          2.4180     0.5920    -3.0960 ca         1 55P      -0.135500
     12 CBP          2.0520     0.5370    -4.4270 ca         1 55P      -0.113000
     13 CBQ          0.8480     1.0800    -4.8370 ca         1 55P      -0.114000
     14 CBR          0.0100     1.6770    -3.9140 ca         1 55P      -0.113000
     15 CBS          0.3740     1.7280    -2.5810 ca         1 55P      -0.135500
     16 H43         -0.3340    -0.2980    -0.8950 hn         1 55P       0.448800
     17 H44          1.8310    -0.8840    -0.5110 hx         1 55P       0.113700
     18 H45          3.0590     0.0890     1.4430 hc         1 55P       0.090200
     19 H46          1.5480     0.8360     1.9780 hc         1 55P       0.090200
     20 H47          0.5030    -1.4400     2.0470 hc         1 55P       0.005700
     21 H48          1.5480    -3.1650     1.0440 hc         1 55P       0.033700
     22 H49          2.9080    -2.1070     0.6400 hc         1 55P       0.033700
     23 H50          2.9040    -2.9980     2.1690 hc         1 55P       0.033700
     24 H52          1.5470     2.1320    -0.2640 hc         1 55P       0.085700
     25 H53          3.0590     1.2960    -0.6450 hc         1 55P       0.085700
     26 H54          3.3610     0.1670    -2.7750 ha         1 55P       0.129500
     27 H55          2.7080     0.0690    -5.1500 ha         1 55P       0.143500
     28 H56          0.5630     1.0380    -5.8810 ha         1 55P       0.144000
     29 H57         -0.9340     2.1010    -4.2350 ha         1 55P       0.143500
     30 H58         -0.2830     2.1960    -1.8570 ha         1 55P       0.129500
     31 H2          -0.3340     0.9240     0.1900 hn         1 55P       0.448800
     32 HBI3        -0.3340    -0.6270     0.7060 hn         1 55P       0.448800
@<TRIPOS>BOND
     1     3     4 1   
     2     3     2 1   
     3     5     4 1   
     4     9     2 1   
     5     9    10 1   
     6    11    10 ar  
     7    11    12 ar  
     8     4     6 1   
     9     1     2 1   
    10    10    15 ar  
    11    12    13 ar  
    12     6     8 1   
    13     6     7 1   
    14    15    14 ar  
    15    13    14 ar  
    16     1    16 1   
    17     2    17 1   
    18     3    18 1   
    19     3    19 1   
    20     4    20 1   
    21     5    21 1   
    22     5    22 1   
    23     5    23 1   
    24     9    24 1   
    25     9    25 1   
    26    11    26 1   
    27    12    27 1   
    28    13    28 1   
    29    14    29 1   
    30    15    30 1   
    31     1    31 1   
    32    32     1 1   
@<TRIPOS>SUBSTRUCTURE
     1 55P         1 TEMP              0 ****  ****    0 ROOT
