@<TRIPOS>MOLECULE
55P
   32    32     1     0     0
SMALL
bcc


@<TRIPOS>ATOM
      1 NBI          0.0000     0.0000     0.0000 nz         1 55P       0.039400
      2 CBJ          1.4700     0.0000     0.0000 c3         1 55P      -0.088500
      3 CBL          1.9800     0.0000     1.4420 c3         1 55P      -0.027400
      4 CBT          1.5760    -1.3070     2.1260 c3         1 55P      -0.174700
      5 CBX          2.2860    -2.4800     1.4450 c3         1 55P       0.009900
      6 CBU          1.9690    -1.2580     3.5790 c          1 55P       0.974600
      7 OXT          1.7110    -2.3020     4.3810 o          1 55P      -0.859300
      8 O            2.5170    -0.2760     4.0230 o          1 55P      -0.859300
      9 CBM          1.9790     1.2500    -0.7210 c3         1 55P       0.028900
     10 CBN          1.5800     1.1900    -2.1730 ca         1 55P      -0.153300
     11 CBO          2.4180     0.5920    -3.0960 ca         1 55P      -0.104500
     12 CBP          2.0520     0.5370    -4.4270 ca         1 55P      -0.082000
     13 CBQ          0.8480     1.0800    -4.8370 ca         1 55P      -0.081000
     14 CBR          0.0100     1.6770    -3.9140 ca         1 55P      -0.082000
     15 CBS          0.3740     1.7280    -2.5810 ca         1 55P      -0.104500
     16 H43         -0.3340    -0.2980    -0.8950 hn         1 55P       0.227467
     17 H44          1.8310    -0.8840    -0.5110 hx         1 55P       0.096700
     18 H45          3.0590     0.0890     1.4430 hc         1 55P       0.060700
     19 H46          1.5480     0.8360     1.9780 hc         1 55P       0.060700
     20 H47          0.5030    -1.4400     2.0470 hc         1 55P      -0.009300
     21 H48          1.5480    -3.1650     1.0440 hc         1 55P       0.004367
     22 H49          2.9080    -2.1070     0.6400 hc         1 55P       0.004367
     23 H50          2.9040    -2.9980     2.1690 hc         1 55P       0.004367
     24 H52          1.5470     2.1320    -0.2640 hc         1 55P       0.052200
     25 H53          3.0590     1.2960    -0.6450 hc         1 55P       0.052200
     26 H54          3.3610     0.1670    -2.7750 ha         1 55P       0.106000
     27 H55          2.7080     0.0690    -5.1500 ha         1 55P       0.113500
     28 H56          0.5630     1.0380    -5.8810 ha         1 55P       0.114000
     29 H57         -0.9340     2.1010    -4.2350 ha         1 55P       0.113500
     30 H58         -0.2830     2.1960    -1.8570 ha         1 55P       0.106000
     31 H2          -0.3340     0.9240     0.1900 hn         1 55P       0.227467
     32 HBI3        -0.3340    -0.6270     0.7060 hn         1 55P       0.227467
@<TRIPOS>BOND
     1     1     2 1   
     2     1    16 1   
     3     1    31 1   
     4     1    32 1   
     5     2     3 1   
     6     2     9 1   
     7     2    17 1   
     8     3     4 1   
     9     3    18 1   
    10     3    19 1   
    11     4     5 1   
    12     4     6 1   
    13     4    20 1   
    14     5    21 1   
    15     5    22 1   
    16     5    23 1   
    17     6     7 1   
    18     6     8 1   
    19     9    10 1   
    20     9    24 1   
    21     9    25 1   
    22    10    11 ar  
    23    10    15 ar  
    24    11    12 ar  
    25    11    26 1   
    26    12    13 ar  
    27    12    27 1   
    28    13    14 ar  
    29    13    28 1   
    30    14    15 ar  
    31    14    29 1   
    32    15    30 1   
@<TRIPOS>SUBSTRUCTURE
     1 55P         1 TEMP              0 ****  ****    0 ROOT
