@<TRIPOS>MOLECULE
55R
   27    28     1     0     0
SMALL
bcc


@<TRIPOS>ATOM
      1 O1           0.0000     0.0000     0.0000 o          1 55R      -0.867300
      2 O2           1.8880    -0.0010    -1.1670 o          1 55R      -0.867300
      3 C3           1.2150     0.0000     0.0000 c          1 55R       0.987200
      4 C4           1.9520     0.0000     1.2780 ca         1 55R      -0.125600
      5 C5           1.2580     0.1140     2.4930 ca         1 55R      -0.017400
      6 C6           1.9640     0.1140     3.6910 ca         1 55R      -0.138000
      7 C7           3.3400     0.0000     3.6810 ca         1 55R      -0.105000
      8 C8           4.0270    -0.1110     2.4830 ca         1 55R      -0.142000
      9 C9           3.3430    -0.1200     1.2860 ca         1 55R      -0.042000
     10 C13         -4.7980     1.0810     3.5880 c          1 55R       0.622500
     11 C12         -4.0720     1.2000     4.7920 cc         1 55R      -0.277700
     12 C11         -2.7340     0.9880     4.8020 cd         1 55R      -0.095100
     13 C14         -4.1340     0.7360     2.3930 cc         1 55R      -0.277700
     14 C15         -2.7960     0.5220     2.3960 cd         1 55R      -0.095100
     15 C10         -2.0640     0.6480     3.6020 cd         1 55R       0.195900
     16 N9          -0.7510     0.4380     3.6080 n2         1 55R      -0.398400
     17 N8          -0.1260     0.2280     2.4990 nu         1 55R       0.046300
     18 H2           1.4340     0.2010     4.6320 ha         1 55R       0.118000
     19 H3           3.8870     0.0030     4.6160 ha         1 55R       0.088000
     20 H4           5.1060    -0.2020     2.4870 ha         1 55R       0.090000
     21 H5           3.8850    -0.2070     0.3520 ha         1 55R       0.132000
     22 H6          -4.5850     1.4620     5.7100 ha         1 55R       0.115000
     23 H8          -2.1860     1.0300     5.7350 ha         1 55R       0.110000
     24 H9          -4.6950     0.6410     1.4710 ha         1 55R       0.115000
     25 H10         -2.2990     0.1890     1.4930 ha         1 55R       0.110000
     26 H7          -0.6410     0.1040     1.6500 hn         1 55R       0.372800
     27 O16         -6.0060     1.2740     3.5830 o          1 55R      -0.655100
@<TRIPOS>BOND
     1     1     3 1   
     2     2     3 1   
     3     3     4 1   
     4     4     5 ar  
     5     4     9 ar  
     6     5     6 ar  
     7     5    17 1   
     8     6     7 ar  
     9     6    18 1   
    10     7     8 ar  
    11     7    19 1   
    12     8     9 ar  
    13     8    20 1   
    14     9    21 1   
    15    10    11 1   
    16    10    13 1   
    17    10    27 2   
    18    11    12 2   
    19    11    22 1   
    20    12    15 1   
    21    12    23 1   
    22    13    14 2   
    23    13    24 1   
    24    14    15 1   
    25    14    25 1   
    26    15    16 2   
    27    16    17 1   
    28    17    26 1   
@<TRIPOS>SUBSTRUCTURE
     1 55R         1 TEMP              0 ****  ****    0 ROOT
