@<TRIPOS>MOLECULE
55S
   54    57     1     0     0
SMALL
bcc


@<TRIPOS>ATOM
      1 C4           0.0000     0.0000     0.0000 ca         1 55S      -0.162000
      2 C14          6.9930    -3.9630     4.5110 c3         1 55S      -0.022400
      3 C5           1.3890     0.0000     0.0000 ca         1 55S       0.057600
      4 C6           3.3000    -0.6710    -1.3100 ca         1 55S       0.748900
      5 C11          4.4270    -2.8340     1.8730 c3         1 55S       0.205400
      6 C7           5.1580    -1.1980    -2.5620 ca         1 55S       0.278800
      7 C8           7.0960    -2.1060    -3.0980 cc         1 55S       0.209700
      8 C9           5.6370    -1.9820    -1.4980 ca         1 55S      -0.243200
      9 C10          4.8620    -2.0640    -0.3300 ca         1 55S       0.761600
     10 C12          5.0570    -3.7160     2.9530 c3         1 55S      -0.059700
     11 C13          6.3640    -3.0810     3.4320 c3         1 55S      -0.021900
     12 N1           3.9980    -0.5660    -2.4280 nb         1 55S      -0.716000
     13 N2           6.0980    -1.2950    -3.5560 na         1 55S       0.170000
     14 C3          -0.6890     0.0050     1.1970 ca         1 55S       0.023000
     15 N3           6.8230    -2.5070    -1.8910 nd         1 55S      -0.451100
     16 O1          -2.1270     0.6220     3.5990 o          1 55S      -0.589300
     17 O            0.0130     0.6280     4.8390 o          1 55S      -0.589300
     18 C1          -1.1090    -1.7360     4.3180 c3         1 55S       0.002400
     19 C           -1.8730    -1.8630     5.6390 c3         1 55S       0.037900
     20 C2           0.0010     0.0120     2.3940 ca         1 55S      -0.181500
     21 C19          1.3850     0.0110     2.3980 ca         1 55S       0.023000
     22 C18          2.0800     0.0000     1.2050 ca         1 55S      -0.162000
     23 N            2.0900    -0.0010    -1.2100 nu         1 55S      -0.292300
     24 N4           3.7160    -1.4000    -0.2810 nb         1 55S      -0.782000
     25 O2           5.2770    -2.8060     0.7250 os         1 55S      -0.395100
     26 C17          4.0910    -3.8470     4.1320 c3         1 55S      -0.021900
     27 C16          4.7210    -4.7290     5.2120 c3         1 55S      -0.022400
     28 C15          6.0270    -4.0940     5.6910 c3         1 55S      -0.026400
     29 H1          -0.5420    -0.0030    -0.9380 ha         1 55S       0.126000
     30 H3           7.1950    -4.9450     4.1010 hc         1 55S       0.013950
     31 H4           4.3040    -1.8280     2.2550 h1         1 55S       0.012700
     32 H5           3.4600    -3.2360     1.5960 h1         1 55S       0.012700
     33 H6           7.9840    -2.3760    -3.6580 h5         1 55S       0.033800
     34 H7           5.2630    -4.6990     2.5470 hc         1 55S       0.040700
     35 H8           7.0480    -2.9920     2.5970 hc         1 55S       0.018200
     36 H9           6.1580    -2.1000     3.8430 hc         1 55S       0.018200
     37 H10          6.0600    -0.8530    -4.4530 hn         1 55S       0.134700
     38 H11         -1.7730     0.0050     1.1970 ha         1 55S       0.121500
     39 H13         -1.6580    -2.2410     3.5330 h1         1 55S       0.061700
     40 H14         -0.1300    -2.1890     4.4230 h1         1 55S       0.061700
     41 H15         -1.9850    -2.9100     5.8920 hc         1 55S       0.012033
     42 H16         -2.8520    -1.4110     5.5340 hc         1 55S       0.012033
     43 H17         -1.3240    -1.3580     6.4240 hc         1 55S       0.012033
     44 H18          1.9230     0.0140     3.3380 ha         1 55S       0.121500
     45 H19          3.1630    -0.0000     1.2090 ha         1 55S       0.126000
     46 H20          1.7270     0.4970    -1.9990 hn         1 55S       0.297800
     47 H21          3.8890    -2.8650     4.5420 hc         1 55S       0.018200
     48 H22          3.1670    -4.2990     3.7910 hc         1 55S       0.018200
     49 H23          4.0370    -4.8190     6.0470 hc         1 55S       0.013950
     50 H24          4.9270    -5.7100     4.8010 hc         1 55S       0.013950
     51 H25          6.4740    -4.7210     6.4530 hc         1 55S       0.013700
     52 H26          5.8220    -3.1120     6.0990 hc         1 55S       0.013700
     53 S           -0.8810     0.0190     3.9190 sy         1 55S       0.876300
     54 H2           7.9170    -3.5110     4.8520 hc         1 55S       0.013950
@<TRIPOS>BOND
     1     1     3 ar  
     2     1    14 ar  
     3     1    29 1   
     4     2    11 1   
     5     2    28 1   
     6     2    30 1   
     7     2    54 1   
     8     3    22 ar  
     9     3    23 1   
    10     4    12 ar  
    11     4    23 1   
    12     4    24 ar  
    13     5    10 1   
    14     5    25 1   
    15     5    31 1   
    16     5    32 1   
    17     6     8 ar  
    18     6    12 ar  
    19     6    13 1   
    20     7    13 1   
    21     7    15 2   
    22     7    33 1   
    23     8     9 ar  
    24     8    15 1   
    25     9    24 ar  
    26     9    25 1   
    27    10    11 1   
    28    10    26 1   
    29    10    34 1   
    30    11    35 1   
    31    11    36 1   
    32    13    37 1   
    33    14    20 ar  
    34    14    38 1   
    35    16    53 2   
    36    17    53 2   
    37    18    19 1   
    38    18    39 1   
    39    18    40 1   
    40    18    53 1   
    41    19    41 1   
    42    19    42 1   
    43    19    43 1   
    44    20    21 ar  
    45    20    53 1   
    46    21    22 ar  
    47    21    44 1   
    48    22    45 1   
    49    23    46 1   
    50    26    27 1   
    51    26    47 1   
    52    26    48 1   
    53    27    28 1   
    54    27    49 1   
    55    27    50 1   
    56    28    51 1   
    57    28    52 1   
@<TRIPOS>SUBSTRUCTURE
     1 55S         1 TEMP              0 ****  ****    0 ROOT
