@<TRIPOS>MOLECULE
molecule
   58    60     1     0     0
SMALL
bcc


@<TRIPOS>ATOM
      1 N1           0.0000     0.0000     0.0000 n          1 55T      -0.354000
      2 O11          2.9250    -7.0210    -3.7760 o          1 55T      -0.686833
      3 O12          0.8710    -7.9580    -4.9050 o          1 55T      -0.686833
      4 C2           1.3460     0.0000     0.0000 c          1 55T       0.835900
      5 O2           1.9460    -0.0010    -1.0630 o          1 55T      -0.599500
      6 N3           2.0340     0.0000     1.1400 nc         1 55T      -0.742100
      7 C4           1.4060     0.0010     2.3090 cd         1 55T       0.316500
      8 N4           2.1270     0.0010     3.4810 nz         1 55T      -0.672600
      9 C5          -0.0030     0.0020     2.3440 cd         1 55T      -0.366600
     10 C6          -0.6880     0.0010     1.1750 cc         1 55T       0.017600
     11 C1'         -0.7280     0.0070    -1.2720 c3         1 55T       0.303500
     12 O4'         -0.2190    -1.0150    -2.1550 os         1 55T      -0.346600
     13 C2'         -0.4610     1.3220    -2.0470 c3         1 55T       0.080100
     14 O2'         -1.3670     2.3490    -1.6360 oh         1 55T      -0.598800
     15 C3'         -0.7350     0.8980    -3.5100 c3         1 55T       0.091100
     16 O3'         -2.0580     1.2690    -3.9000 oh         1 55T      -0.592800
     17 C4'         -0.5890    -0.6360    -3.4920 c3         1 55T       0.121100
     18 C5'          0.5010    -1.0670    -4.4750 c3         1 55T       0.234400
     19 O5'          0.5600    -2.4940    -4.5250 os         1 55T      -0.582200
     20 P            1.5970    -3.2960    -5.4610 p5         1 55T       1.359800
     21 O3P          3.1020    -3.0040    -4.9660 o          1 55T      -0.827500
     22 O1P          1.2970    -4.8750    -5.3630 os         1 55T      -0.559200
     23 O2P          1.4430    -2.8500    -6.8630 o          1 55T      -0.827500
     24 C8           1.9890    -5.8480    -6.1470 c3         1 55T       0.153200
     25 P9           2.2050    -7.3730    -5.1720 p5         1 55T       1.033700
     26 O10          3.1150    -8.4140    -5.9970 o          1 55T      -0.686833
     27 C13          1.1900    -6.1540    -7.3880 ca         1 55T      -0.018300
     28 C14         -0.1900    -6.0510    -7.3630 ca         1 55T      -0.067000
     29 C15         -0.9270    -6.3300    -8.4990 ca         1 55T      -0.143000
     30 C16         -0.2870    -6.7120    -9.6620 ca         1 55T      -0.150000
     31 C17          1.0980    -6.8160    -9.6900 ca         1 55T       0.010600
     32 C18          1.8350    -6.5310    -8.5490 ca         1 55T      -0.120000
     33 N19          1.7470    -7.2040   -10.8670 ns         1 55T      -0.457100
     34 C34          1.8720    -7.3690   -13.3320 c3         1 55T      -0.176100
     35 C32          1.2380    -6.8540   -12.0650 c          1 55T       0.646100
     36 O33          0.2710    -6.1250   -12.1230 o          1 55T      -0.610100
     37 H2           1.8980    -0.8150     4.0130 hn         1 55T       0.413133
     38 H3           1.9020     0.8190     4.0110 hn         1 55T       0.413133
     39 H4          -0.5310     0.0020     3.2900 ha         1 55T       0.106000
     40 H5          -1.7720     0.0020     1.1750 h4         1 55T       0.150000
     41 H6          -1.7910    -0.1290    -1.1100 h2         1 55T       0.068700
     42 H7           0.5680     1.6360    -1.9250 h1         1 55T       0.083700
     43 H8          -0.9080     3.1700    -1.5820 ho         1 55T       0.389000
     44 H9          -0.0000     1.3380    -4.1740 h1         1 55T       0.054700
     45 H10         -2.0190     1.8100    -4.6700 ho         1 55T       0.394000
     46 H11         -1.5330    -1.0970    -3.7550 h1         1 55T       0.072700
     47 H12          0.2710    -0.6810    -5.4600 h1         1 55T       0.038700
     48 H13          1.4570    -0.6770    -4.1480 h1         1 55T       0.038700
     49 H15          2.9600    -5.4600    -6.4290 h1         1 55T       0.064700
     50 H17         -0.6930    -5.7520    -6.4520 ha         1 55T       0.155000
     51 H18         -2.0070    -6.2490    -8.4760 ha         1 55T       0.102000
     52 H19         -0.8660    -6.9320   -10.5510 ha         1 55T       0.120000
     53 H20          2.9150    -6.6110    -8.5670 ha         1 55T       0.134000
     54 H21          2.5840    -7.7510   -10.8190 hn         1 55T       0.314500
     55 H22          1.2440    -7.1160   -14.1780 hc         1 55T       0.046700
     56 H23          2.8480    -6.9160   -13.4570 hc         1 55T       0.046700
     57 H24          1.9780    -8.4460   -13.2700 hc         1 55T       0.046700
     58 H43          3.1050    -0.0000     3.2700 hn         1 55T       0.413133
@<TRIPOS>BOND
     1     5     4 2
     2     6     4 1
     3     6     7 2
     4     4     1 1
     5    14    13 1
     6    11     1 1
     7    11    13 1
     8    11    12 1
     9     1    10 1
    10     7     8 1
    11     7     9 1
    12    13    15 1
    13    12    17 1
    14    10     9 2
    15    15    17 1
    16    15    16 1
    17    17    18 1
    18    18    19 1
    19    19    20 1
    20     3    25 1
    21    29    28 ar
    22    29    30 ar
    23    28    27 ar
    24    22    20 1
    25    22    24 1
    26    20    23 1
    27    20    21 1
    28    30    31 ar
    29    25    24 1
    30    25     2 1
    31    25    26 1
    32    27    24 1
    33    27    32 ar
    34    31    32 ar
    35    31    33 1
    36    33    35 1
    37    35    36 2
    38    35    34 1
    39     8    37 1
    40     8    38 1
    41     9    39 1
    42    10    40 1
    43    11    41 1
    44    13    42 1
    45    14    43 1
    46    15    44 1
    47    16    45 1
    48    17    46 1
    49    18    47 1
    50    18    48 1
    51    24    49 1
    52    28    50 1
    53    29    51 1
    54    30    52 1
    55    32    53 1
    56    33    54 1
    57    34    55 1
    58    34    56 1
    59    34    57 1
    60    58     8 1
@<TRIPOS>SUBSTRUCTURE
     1 55T         1 TEMP              0 ****  ****    0 ROOT
