@<TRIPOS>MOLECULE
molecule
   48    50     1     0     0
SMALL
bcc


@<TRIPOS>ATOM
      1 C10          0.0000     0.0000     0.0000 cp         1 55U       0.550800
      2 C15          3.3100     0.0010     3.6650 ca         1 55U      -0.267300
      3 C17          1.2850     0.0000     2.4210 ca         1 55U      -0.324600
      4 C21         -2.9720     0.0190     4.7650 c3         1 55U      -0.136400
      5 C22         -4.4980     0.0240     4.6560 c3         1 55U       0.096800
      6 C01         -1.9980    -0.0020    -6.1910 c3         1 55U       0.228100
      7 C03         -4.2150     0.0070    -4.9550 c3         1 55U       0.228100
      8 C04         -2.0710     0.0020    -3.7150 ca         1 55U       0.226600
      9 C05         -2.7850     0.0010    -2.5220 ca         1 55U      -0.216500
     10 C06         -2.1160    -0.0000    -1.3160 ca         1 55U      -0.049500
     11 C07         -0.7210    -0.0000    -1.2940 cp         1 55U      -0.224500
     12 C08         -0.0070     0.0010    -2.4930 ca         1 55U      -0.049500
     13 C09         -0.6810    -0.0030    -3.6950 ca         1 55U      -0.216500
     14 C11          1.3830     0.0000     0.0000 ca         1 55U      -0.331600
     15 C12          2.0600     0.0000     1.2330 ca         1 55U       0.483600
     16 N13          3.3920     0.0000     1.3040 nb         1 55U      -0.677000
     17 C14          4.0100     0.0010     2.4630 ca         1 55U       0.462200
     18 C16          1.9410    -0.0010     3.6600 ca         1 55U      -0.067000
     19 C18         -0.1250     0.0050     2.3210 ca         1 55U       0.720200
     20 N19         -0.8990     0.0100     3.4670 nu         1 55U      -0.929900
     21 N23         -5.0840     0.0290     6.0030 nz         1 55U      -0.811600
     22 N24         -0.7010     0.0050     1.1350 nb         1 55U      -0.787000
     23 H1           3.8480     0.0020     4.6060 ha         1 55U       0.143000
     24 H2          -2.6880    -0.8690     2.8290 h1         1 55U       0.064200
     25 H3          -2.6810     0.9000     2.8260 h1         1 55U       0.064200
     26 H4          -2.6440     0.9030     5.2990 hc         1 55U       0.068200
     27 H5          -2.6510    -0.8660     5.3010 hc         1 55U       0.068200
     28 H6          -4.8260    -0.8600     4.1230 hx         1 55U       0.117200
     29 H7          -4.8190     0.9090     4.1200 hx         1 55U       0.117200
     30 H8          -2.6900    -0.0030    -7.0250 h1         1 55U       0.039033
     31 H9          -1.3660     0.8760    -6.2460 h1         1 55U       0.039033
     32 H10         -1.3830    -0.8930    -6.2310 h1         1 55U       0.039033
     33 H11         -4.5860    -0.8770    -4.4520 h1         1 55U       0.039033
     34 H12         -4.5610     0.0110    -5.9810 h1         1 55U       0.039033
     35 H13         -4.5800     0.8920    -4.4480 h1         1 55U       0.039033
     36 H14         -3.8690     0.0010    -2.5390 ha         1 55U       0.136000
     37 H15         -2.6720    -0.0010    -0.3870 ha         1 55U       0.135500
     38 H16          1.0760    -0.0030    -2.4780 ha         1 55U       0.135500
     39 H17         -0.1260    -0.0020    -4.6260 ha         1 55U       0.136000
     40 H18          1.9240     0.2040    -0.9160 ha         1 55U       0.166000
     41 H19          5.0940     0.0030     2.4830 h4         1 55U       0.034100
     42 H20          1.3810    -0.0010     4.5870 ha         1 55U       0.117000
     43 H21         -0.4610     0.0310     4.3660 hn         1 55U       0.447800
     44 H22         -6.0830     0.0330     5.9330 hn         1 55U       0.458467
     45 H23         -4.7870    -0.7880     6.4990 hn         1 55U       0.458467
     46 H233        -4.7820     0.8460     6.4960 hn         1 55U       0.458467
     47 N02         -2.7500     0.0020    -4.9330 nh         1 55U      -0.731000
     48 C20         -2.3610     0.0150     3.3630 c3         1 55U       0.261800
@<TRIPOS>BOND
     1    48     4 1
     2    48    20 1
     3     4     5 1
     4    20    19 1
     5    21     5 1
     6    19    22 ar
     7    19     3 ar
     8    22     1 ar
     9    18     3 ar
    10    18     2 ar
    11    10     9 ar
    12    10    11 ar
    13     3    15 ar
    14     9     8 ar
    15     6    47 1
    16     1    11 1
    17     1    14 ar
    18     2    17 ar
    19    11    12 ar
    20     8    47 1
    21     8    13 ar
    22    15    14 ar
    23    15    16 ar
    24    47     7 1
    25    12    13 ar
    26    17    16 ar
    27     2    23 1
    28    48    24 1
    29    48    25 1
    30     4    26 1
    31     4    27 1
    32     5    28 1
    33     5    29 1
    34     6    30 1
    35     6    31 1
    36     6    32 1
    37     7    33 1
    38     7    34 1
    39     7    35 1
    40     9    36 1
    41    10    37 1
    42    12    38 1
    43    13    39 1
    44    14    40 1
    45    17    41 1
    46    18    42 1
    47    20    43 1
    48    21    44 1
    49    21    45 1
    50    46    21 1
@<TRIPOS>SUBSTRUCTURE
     1 55U         1 TEMP              0 ****  ****    0 ROOT
