@<TRIPOS>MOLECULE
55U
   48    50     1     0     0
SMALL
bcc


@<TRIPOS>ATOM
      1 C10          0.0000     0.0000     0.0000 cp         1 55U       0.512800
      2 C15          3.3100     0.0010     3.6650 ca         1 55U      -0.230300
      3 C17          1.2850     0.0000     2.4210 ca         1 55U      -0.315600
      4 C21         -2.9720     0.0190     4.7650 c3         1 55U      -0.051400
      5 C22         -4.4980     0.0240     4.6560 c3         1 55U      -0.046200
      6 C01         -1.9980    -0.0020    -6.1910 c3         1 55U       0.209100
      7 C03         -4.2150     0.0070    -4.9550 c3         1 55U       0.209100
      8 C04         -2.0710     0.0020    -3.7150 ca         1 55U       0.098600
      9 C05         -2.7850     0.0010    -2.5220 ca         1 55U      -0.202000
     10 C06         -2.1160    -0.0000    -1.3160 ca         1 55U      -0.021000
     11 C07         -0.7210    -0.0000    -1.2940 cp         1 55U      -0.238500
     12 C08         -0.0070     0.0010    -2.4930 ca         1 55U      -0.021000
     13 C09         -0.6810    -0.0030    -3.6950 ca         1 55U      -0.202000
     14 C11          1.3830     0.0000     0.0000 ca         1 55U      -0.314600
     15 C12          2.0600     0.0000     1.2330 ca         1 55U       0.441600
     16 N13          3.3920     0.0000     1.3040 nb         1 55U      -0.566000
     17 C14          4.0100     0.0010     2.4630 ca         1 55U       0.442200
     18 C16          1.9410    -0.0010     3.6600 ca         1 55U      -0.050000
     19 C18         -0.1250     0.0050     2.3210 ca         1 55U       0.534200
     20 N19         -0.8990     0.0100     3.4670 nu         1 55U      -0.538900
     21 N23         -5.0840     0.0290     6.0030 nz         1 55U       0.085400
     22 N24         -0.7010     0.0050     1.1350 nb         1 55U      -0.667000
     23 H1           3.8480     0.0020     4.6060 ha         1 55U       0.117000
     24 H2          -2.6880    -0.8690     2.8290 h1         1 55U       0.033200
     25 H3          -2.6810     0.9000     2.8260 h1         1 55U       0.033200
     26 H4          -2.6440     0.9030     5.2990 hc         1 55U       0.034700
     27 H5          -2.6510    -0.8660     5.3010 hc         1 55U       0.034700
     28 H6          -4.8260    -0.8600     4.1230 hx         1 55U       0.089700
     29 H7          -4.8190     0.9090     4.1200 hx         1 55U       0.089700
     30 H8          -2.6900    -0.0030    -7.0250 h1         1 55U       0.007867
     31 H9          -1.3660     0.8760    -6.2460 h1         1 55U       0.007867
     32 H10         -1.3830    -0.8930    -6.2310 h1         1 55U       0.007867
     33 H11         -4.5860    -0.8770    -4.4520 h1         1 55U       0.007867
     34 H12         -4.5610     0.0110    -5.9810 h1         1 55U       0.007867
     35 H13         -4.5800     0.8920    -4.4480 h1         1 55U       0.007867
     36 H14         -3.8690     0.0010    -2.5390 ha         1 55U       0.118000
     37 H15         -2.6720    -0.0010    -0.3870 ha         1 55U       0.106500
     38 H16          1.0760    -0.0030    -2.4780 ha         1 55U       0.106500
     39 H17         -0.1260    -0.0020    -4.6260 ha         1 55U       0.118000
     40 H18          1.9240     0.2040    -0.9160 ha         1 55U       0.145000
     41 H19          5.0940     0.0030     2.4830 h4         1 55U      -0.014900
     42 H20          1.3810    -0.0010     4.5870 ha         1 55U       0.094000
     43 H21         -0.4610     0.0310     4.3660 hn         1 55U       0.300800
     44 H22         -6.0830     0.0330     5.9330 hn         1 55U       0.224133
     45 H23         -4.7870    -0.7880     6.4990 hn         1 55U       0.224133
     46 H233        -4.7820     0.8460     6.4960 hn         1 55U       0.224133
     47 N02         -2.7500     0.0020    -4.9330 nh         1 55U      -0.383000
     48 C20         -2.3610     0.0150     3.3630 c3         1 55U       0.189800
@<TRIPOS>BOND
     1     1    11 1   
     2     1    14 ar  
     3     1    22 ar  
     4     2    17 ar  
     5     2    18 ar  
     6     2    23 1   
     7     3    15 ar  
     8     3    18 ar  
     9     3    19 ar  
    10     4     5 1   
    11     4    26 1   
    12     4    27 1   
    13     4    48 1   
    14     5    21 1   
    15     5    28 1   
    16     5    29 1   
    17     6    30 1   
    18     6    31 1   
    19     6    32 1   
    20     6    47 1   
    21     7    33 1   
    22     7    34 1   
    23     7    35 1   
    24     7    47 1   
    25     8     9 ar  
    26     8    13 ar  
    27     8    47 1   
    28     9    10 ar  
    29     9    36 1   
    30    10    11 ar  
    31    10    37 1   
    32    11    12 ar  
    33    12    13 ar  
    34    12    38 1   
    35    13    39 1   
    36    14    15 ar  
    37    14    40 1   
    38    15    16 ar  
    39    16    17 ar  
    40    17    41 1   
    41    18    42 1   
    42    19    20 1   
    43    19    22 ar  
    44    20    43 1   
    45    20    48 1   
    46    21    44 1   
    47    21    45 1   
    48    21    46 1   
    49    24    48 1   
    50    25    48 1   
@<TRIPOS>SUBSTRUCTURE
     1 55U         1 TEMP              0 ****  ****    0 ROOT
