@<TRIPOS>MOLECULE
55V
   50    51     1     0     0
SMALL
bcc


@<TRIPOS>ATOM
      1 C1P          0.0000     0.0000     0.0000 c3         1 55V       0.230200
      2 O1O          1.4290     0.0000     0.0000 os         1 55V      -0.290900
      3 C1N          2.0470     0.0000     1.2120 ca         1 55V       0.168100
      4 C1M          1.2930    -0.0060     2.3750 ca         1 55V      -0.251500
      5 C1Q          3.4350     0.0010     1.2860 ca         1 55V       0.040100
      6 O1V          4.1780     0.0020     0.1460 os         1 55V      -0.309900
      7 C1W          4.5320     1.2750    -0.3970 c3         1 55V       0.250700
      8 C1R          4.0610     0.0010     2.5260 ca         1 55V       0.168100
      9 O1T          5.4190     0.0020     2.6040 os         1 55V      -0.290900
     10 C1U          5.9940     0.0020     3.9120 c3         1 55V       0.230200
     11 C1S          3.2990     0.0010     3.6850 ca         1 55V      -0.251500
     12 C1L          1.9200    -0.0050     3.6080 ca         1 55V      -0.002300
     13 C1J          1.0960    -0.0120     4.8700 c3         1 55V       0.117400
     14 C1K          0.2190    -1.2660     4.9000 c3         1 55V       0.000900
     15 C1X          2.0250    -0.0100     6.0850 c3         1 55V       0.000900
     16 C1I          0.2410     1.1860     4.9030 c1         1 55V      -0.141100
     17 C1H         -0.4570     2.1300     4.9300 cg         1 55V      -0.101000
     18 C5          -1.2500     3.3170     4.6910 ca         1 55V      -0.330600
     19 C4          -1.9350     3.4330     3.4710 ca         1 55V       0.486600
     20 C1Y         -1.9180     2.7570     2.3530 c3         1 55V      -0.083400
     21 N3          -2.6220     4.5870     3.4040 nb         1 55V      -0.688000
     22 C2          -2.5050     5.4060     4.5460 ca         1 55V       0.696900
     23 N1Z         -3.1810     6.9180     4.3260 nv         1 55V      -0.617500
     24 N1          -1.7610     5.0530     5.6180 nb         1 55V      -0.477000
     25 C6          -1.2200     4.2060     5.7410 ca         1 55V       0.618200
     26 N1G         -0.1570     3.9200     6.8440 nv         1 55V      -0.734500
     27 H1P         -0.3610    -0.4410    -0.9210 h1         1 55V       0.000533
     28 H1PA        -0.3610    -0.5770     0.8430 h1         1 55V       0.000533
     29 H1PB        -0.3610     1.0180     0.0780 h1         1 55V       0.000533
     30 H1M          0.2120    -0.0480     2.3200 ha         1 55V       0.140000
     31 H1W          4.3160     2.0500     0.3290 h1         1 55V      -0.009967
     32 H1WA         3.9590     1.4550    -1.2980 h1         1 55V      -0.009967
     33 H1WB         5.5890     1.2860    -0.6330 h1         1 55V      -0.009967
     34 H1U          5.3210     0.4960     4.6020 h1         1 55V       0.000533
     35 H1UA         6.9400     0.5300     3.8900 h1         1 55V       0.000533
     36 H1UB         6.1580    -1.0190     4.2340 h1         1 55V       0.000533
     37 H1S          3.7860     0.0010     4.6530 ha         1 55V       0.140000
     38 H1K          0.8190    -2.1320     4.6480 hc         1 55V       0.011367
     39 H1KA        -0.5850    -1.1620     4.1800 hc         1 55V       0.011367
     40 H1KB        -0.1990    -1.3910     5.8910 hc         1 55V       0.011367
     41 H1X          1.4350    -0.0760     6.9910 hc         1 55V       0.011367
     42 H1XA         2.6950    -0.8590     6.0280 hc         1 55V       0.011367
     43 H1XB         2.6030     0.9070     6.0960 hc         1 55V       0.011367
     44 H1Y         -0.9150     2.7610     1.9440 hc         1 55V       0.038700
     45 H1YA        -2.2260     1.7360     2.5440 hc         1 55V       0.038700
     46 H1YB        -2.5980     3.2130     1.6450 hc         1 55V       0.038700
     47 HN1Z        -3.6550     7.1350     3.4720 hn         1 55V       0.280300
     48 HN1A        -3.1090     7.6080     5.0480 hn         1 55V       0.280300
     49 HN1G         0.3460     3.0540     6.8420 hn         1 55V       0.281800
     50 HN1B        -0.0070     4.5830     7.5790 hn         1 55V       0.281800
@<TRIPOS>BOND
     1     1     2 1   
     2     1    27 1   
     3     1    28 1   
     4     1    29 1   
     5     2     3 1   
     6     3     4 ar  
     7     3     5 ar  
     8     4    12 ar  
     9     4    30 1   
    10     5     6 1   
    11     5     8 ar  
    12     6     7 1   
    13     7    31 1   
    14     7    32 1   
    15     7    33 1   
    16     8     9 1   
    17     8    11 ar  
    18     9    10 1   
    19    10    34 1   
    20    10    35 1   
    21    10    36 1   
    22    11    12 ar  
    23    11    37 1   
    24    12    13 1   
    25    13    14 1   
    26    13    15 1   
    27    13    16 1   
    28    14    38 1   
    29    14    39 1   
    30    14    40 1   
    31    15    41 1   
    32    15    42 1   
    33    15    43 1   
    34    16    17 3   
    35    17    18 1   
    36    18    19 ar  
    37    18    25 ar  
    38    19    20 1   
    39    19    21 ar  
    40    20    44 1   
    41    20    45 1   
    42    20    46 1   
    43    21    22 ar  
    44    22    23 1   
    45    22    24 ar  
    46    23    47 1   
    47    23    48 1   
    48    24    25 ar  
    49    25    26 1   
    50    26    49 1   
    51    26    50 1   
@<TRIPOS>SUBSTRUCTURE
     1 55V         1 TEMP              0 ****  ****    0 ROOT
