@<TRIPOS>MOLECULE
55W
   63    67     1     0     0
SMALL
bcc


@<TRIPOS>ATOM
      1 C1           0.0000     0.0000     0.0000 ca         1 55W      -0.052500
      2 C2           1.3940     0.0000     0.0000 ca         1 55W      -0.164900
      3 C3          -0.6880     0.0070     1.1950 ca         1 55W      -0.144000
      4 C4           2.0890     0.0000     1.2070 ca         1 55W      -0.052500
      5 C5           0.0080     0.0120     2.3990 ca         1 55W      -0.075200
      6 C6           1.3970     0.0010     2.4000 ca         1 55W      -0.144000
      7 C8          -0.1390     0.0250     4.8360 cc         1 55W      -0.235300
      8 O14         -2.0240     0.0590     7.9240 o          1 55W      -0.897800
      9 C15          2.1360    -0.0010    -1.2850 cc         1 55W       0.533200
     10 C16          3.5280    -0.0020    -1.4230 cc         1 55W      -0.356600
     11 C17          3.8140    -0.0040    -2.7790 cd         1 55W       0.193500
     12 C21          4.9840    -0.0060    -4.7730 cc         1 55W       0.380600
     13 C23          2.5990    -0.0040    -4.8140 cd         1 55W      -0.022700
     14 O28         -4.9450     1.3360     3.6270 os         1 55W      -0.461200
     15 O29         -4.9490    -1.1850     3.7340 o          1 55W      -0.615300
     16 C30         -5.9510     1.6140     2.6490 c3         1 55W       0.347700
     17 C31         -8.8020     0.0690     7.0890 ca         1 55W      -0.069300
     18 C32         -8.7520    -0.6630     5.9170 ca         1 55W      -0.150000
     19 C33         -7.6980     0.7950     7.4990 ca         1 55W      -0.132000
     20 C34         -7.5980    -0.6720     5.1570 ca         1 55W      -0.011000
     21 C35         -6.5440     0.7840     6.7390 ca         1 55W      -0.020300
     22 C36         -6.4920     0.0480     5.5700 ca         1 55W      -0.147500
     23 P27         -4.9770     0.0350     4.5720 py         1 55W       0.843500
     24 C10         -2.3850     0.0390     5.0230 cd         1 55W       0.578200
     25 C9          -1.1700     0.0380     5.7570 cd         1 55W      -0.327900
     26 O13          0.1920     0.0460     7.7830 o          1 55W      -0.897800
     27 N11         -2.0860     0.0220     3.7480 nc         1 55W      -0.745800
     28 N7          -0.6930     0.0190     3.6110 na         1 55W       0.594300
     29 N19          1.5930    -0.0080    -2.4890 nd         1 55W      -0.741100
     30 N18          2.6140    -0.0030    -3.4440 na         1 55W       0.506200
     31 N24          1.4030    -0.0040    -5.5000 nv         1 55W      -0.522200
     32 C22          3.7880    -0.0070    -5.4910 cc         1 55W      -0.280300
     33 C25          6.2990    -0.0080    -5.5090 c3         1 55W      -0.036400
     34 N20          4.9710    -0.0050    -3.4580 nd         1 55W      -0.543000
     35 H1          -0.5420    -0.0020    -0.9380 ha         1 55W       0.109000
     36 H2          -1.7710     0.0110     1.1960 ha         1 55W       0.134000
     37 H3           3.1730    -0.0040     1.2090 ha         1 55W       0.109000
     38 H4           1.9370     0.0030     3.3390 ha         1 55W       0.134000
     39 H5           0.9140     0.1440     5.0580 h4         1 55W       0.161000
     40 H6           4.2480     0.1100    -0.6210 ha         1 55W       0.150000
     41 H7          -6.4580     0.6950     2.3810 h1         1 55W      -0.031300
     42 H8          -5.4890     2.0420     1.7680 h1         1 55W      -0.031300
     43 H9          -6.6680     2.3160     3.0580 h1         1 55W      -0.031300
     44 H10         -9.6180    -1.2290     5.5950 ha         1 55W       0.098000
     45 H11         -7.7380     1.3690     8.4160 ha         1 55W       0.106000
     46 H12         -7.5580    -1.2470     4.2390 ha         1 55W       0.116000
     47 H13         -5.6680     2.4850     7.6730 hc         1 55W       0.031367
     48 H14         -4.7570     0.9820     7.8800 hc         1 55W       0.031367
     49 H15         -4.7320     1.8250     6.3250 hc         1 55W       0.031367
     50 H16        -10.9240     0.0680     7.2640 hc         1 55W       0.002367
     51 H17        -10.0800    -0.7970     8.5560 hc         1 55W       0.002367
     52 H18        -10.0820     0.9720     8.5310 hc         1 55W       0.002367
     53 H19         -3.7960     0.0050     6.5560 hn         1 55W       0.376800
     54 H21          0.9550     0.8620    -5.7240 hn         1 55W       0.283800
     55 H22          0.9830    -0.8700    -5.7740 hn         1 55W       0.283800
     56 H23          3.8000     0.1410    -6.5640 ha         1 55W       0.131000
     57 H24          6.3800     0.8920    -6.1060 hc         1 55W       0.013367
     58 H25          6.3500    -0.8760    -6.1560 hc         1 55W       0.013367
     59 H26          7.1130    -0.0420    -4.7950 hc         1 55W       0.013367
     60 N26         -3.6710     0.0470     5.5640 nu         1 55W      -0.468000
     61 C37         -5.3410     1.5750     7.1860 c3         1 55W       0.010200
     62 C12         -1.0330     0.0480     7.2210 c          1 55W       1.022200
     63 C38        -10.0600     0.0780     7.9180 c3         1 55W       0.064200
@<TRIPOS>BOND
     1     1     2 ar  
     2     1     3 ar  
     3     1    35 1   
     4     2     4 ar  
     5     2     9 1   
     6     3     5 ar  
     7     3    36 1   
     8     4     6 ar  
     9     4    37 1   
    10     5     6 ar  
    11     5    28 1   
    12     6    38 1   
    13     7    25 2   
    14     7    28 1   
    15     7    39 1   
    16     8    62 1   
    17     9    10 1   
    18     9    29 2   
    19    10    11 2   
    20    10    40 1   
    21    11    30 1   
    22    11    34 1   
    23    12    32 1   
    24    12    33 1   
    25    12    34 2   
    26    13    30 1   
    27    13    31 1   
    28    13    32 2   
    29    14    16 1   
    30    14    23 1   
    31    15    23 2   
    32    16    41 1   
    33    16    42 1   
    34    16    43 1   
    35    17    18 ar  
    36    17    19 ar  
    37    17    63 1   
    38    18    20 ar  
    39    18    44 1   
    40    19    21 ar  
    41    19    45 1   
    42    20    22 ar  
    43    20    46 1   
    44    21    22 ar  
    45    21    61 1   
    46    22    23 1   
    47    23    60 1   
    48    24    25 1   
    49    24    27 2   
    50    24    60 1   
    51    25    62 1   
    52    26    62 1   
    53    27    28 1   
    54    29    30 1   
    55    31    54 1   
    56    31    55 1   
    57    32    56 1   
    58    33    57 1   
    59    33    58 1   
    60    33    59 1   
    61    47    61 1   
    62    48    61 1   
    63    49    61 1   
    64    50    63 1   
    65    51    63 1   
    66    52    63 1   
    67    53    60 1   
@<TRIPOS>SUBSTRUCTURE
     1 55W         1 TEMP              0 ****  ****    0 ROOT
