@<TRIPOS>MOLECULE
55Y
   40    43     1     0     0
SMALL
bcc


@<TRIPOS>ATOM
      1 N1           0.0000     0.0000     0.0000 na         1 55Y       0.498400
      2 N3           6.5580    -1.5440     7.4340 ns         1 55Y      -0.245900
      3 C4           3.1670    -0.0020     1.7740 ca         1 55Y       0.103000
      4 C5           4.1810    -0.0020     0.8510 ca         1 55Y      -0.155000
      5 C6           5.5430     0.0030     1.2660 ca         1 55Y       0.028000
      6 C7           7.1830     0.0140     2.9800 cc         1 55Y      -0.019400
      7 C8           5.8250     0.0090     2.6970 ca         1 55Y      -0.146000
      8 C10          1.3480     0.0000     0.0000 cc         1 55Y      -0.230300
      9 C13          4.1950    -0.6820     7.1740 c3         1 55Y       0.190100
     10 C15          6.5370    -0.2670     7.8440 c          1 55Y       0.785600
     11 O1           7.5210     0.3120     8.2580 o          1 55Y      -0.687500
     12 C14          5.2120    -1.9190     6.9780 c3         1 55Y      -0.012000
     13 O2           5.3370     0.3140     7.7400 os         1 55Y      -0.407900
     14 C1           3.7700    -0.1050     5.8230 c3         1 55Y       0.159100
     15 C            3.1430     1.2750     6.0320 c3         1 55Y      -0.028100
     16 O            4.9130     0.0150     4.9750 os         1 55Y      -0.290900
     17 C2           4.6910     0.0090     3.6350 ca         1 55Y       0.202100
     18 S            7.9980     0.0110     1.4710 ss         1 55Y       0.082900
     19 N            6.6210     0.0040     0.4930 nc         1 55Y      -0.178500
     20 C3           3.4220     0.0050     3.1550 ca         1 55Y      -0.257000
     21 C9           1.7610     0.0000     1.3000 cd         1 55Y      -0.281300
     22 C12          0.6090    -0.0010     2.1110 cd         1 55Y       0.406200
     23 N2          -0.4380     0.0000     1.3300 nc         1 55Y      -0.647800
     24 C11         -0.8590     0.0060    -1.1860 c3         1 55Y       0.021600
     25 H1           3.9430    -0.0070    -0.2060 ha         1 55Y       0.123000
     26 H2           7.6400     0.0180     3.9620 h4         1 55Y       0.166000
     27 H3           1.9880    -0.0000    -0.8740 h4         1 55Y       0.154000
     28 H4           3.4240    -0.9400     7.8900 h1         1 55Y       0.064700
     29 H6           3.0450    -0.7640     5.3610 h1         1 55Y       0.032700
     30 H7           3.8040     2.0360     5.6350 hc         1 55Y       0.023700
     31 H8           2.9900     1.4460     7.0910 hc         1 55Y       0.023700
     32 H9           2.1910     1.3200     5.5180 hc         1 55Y       0.023700
     33 H10          2.5900     0.0050     3.8490 ha         1 55Y       0.133000
     34 H11          0.5940    -0.0010     3.1940 h4         1 55Y       0.002100
     35 H12         -0.6560    -0.8750    -1.7840 h1         1 55Y       0.023367
     36 H13         -1.8980     0.0030    -0.8800 h1         1 55Y       0.023367
     37 H14         -0.6580     0.8940    -1.7730 h1         1 55Y       0.023367
     38 H15          5.2750    -2.0840     5.9090 h1         1 55Y       0.037200
     39 H16          4.8350    -2.6560     7.6770 h1         1 55Y       0.037200
     40 H5           7.3620    -2.1410     7.4310 hn         1 55Y       0.219500
@<TRIPOS>BOND
     1     1     8 1   
     2     1    23 1   
     3     1    24 1   
     4     2    10 1   
     5     2    12 1   
     6     2    40 1   
     7     3     4 ar  
     8     3    20 ar  
     9     3    21 1   
    10     4     5 ar  
    11     4    25 1   
    12     5     7 ar  
    13     5    19 2   
    14     6     7 2   
    15     6    18 1   
    16     6    26 1   
    17     7    17 ar  
    18     8    21 2   
    19     8    27 1   
    20     9    12 1   
    21     9    13 1   
    22     9    14 1   
    23     9    28 1   
    24    10    11 2   
    25    10    13 1   
    26    12    38 1   
    27    12    39 1   
    28    14    15 1   
    29    14    16 1   
    30    14    29 1   
    31    15    30 1   
    32    15    31 1   
    33    15    32 1   
    34    16    17 1   
    35    17    20 ar  
    36    18    19 1   
    37    20    33 1   
    38    21    22 1   
    39    22    23 2   
    40    22    34 1   
    41    24    35 1   
    42    24    36 1   
    43    24    37 1   
@<TRIPOS>SUBSTRUCTURE
     1 55Y         1 TEMP              0 ****  ****    0 ROOT
