@<TRIPOS>MOLECULE
561
   57    61     1     0     0
SMALL
bcc


@<TRIPOS>ATOM
      1 C1         -0.2100   -0.5640   -0.6530 ca        1 561     -0.180800
      2 C2          1.0460   -1.2280   -0.7830 ca        1 561      0.089100
      3 C3         -0.9030   -0.6680    0.5500 ca        1 561     -0.031000
      4 C4         -0.3660   -1.4150    1.5970 ca        1 561     -0.230600
      5 C5          1.6220   -1.9740    0.2310 ca        1 561     -0.217000
      6 C6         -0.4400    0.0870   -1.9360 cc        1 561     -0.119400
      7 C7          0.8890   -2.0570    1.4360 ca        1 561      0.208100
      8 C8          0.6390   -0.2080   -2.7320 cd        1 561     -0.015900
      9 O1          1.4890   -2.8020    2.4090 oh        1 561     -0.546100
     10 O2          1.5780   -1.0120   -2.0620 os        1 561     -0.225200
     11 C21        -1.1740   -1.5090    2.8790 c         1 561      0.919200
     12 O4         -0.6910   -2.1590    3.8570 o         1 561     -0.830300
     13 O5         -2.2970   -0.9380    2.9160 o         1 561     -0.830300
     14 C9         -1.6230    0.9180   -2.2440 c3        1 561      0.195700
     15 N3         -1.6770    1.3510   -3.6790 n3        1 561     -0.557000
     16 N1         -2.7850    0.7510   -4.2910 n3        1 561     -0.328800
     17 N2         -3.5780   -0.0020   -3.3720 n3        1 561     -0.520400
     18 C10        -2.9530    0.1230   -2.0290 c3        1 561      0.109800
     19 C31        -4.3620   -1.6330   -5.1120 c3        1 561     -0.071400
     20 C32        -4.5590   -3.1190   -5.3350 c3        1 561     -0.153400
     21 C33        -3.6960   -1.4190   -3.7560 c3        1 561      0.166800
     22 C34        -5.2660   -3.3860   -6.6530 c         1 561      0.667100
     23 O11        -5.8530   -2.4940   -7.2890 o         1 561     -0.585100
     24 N11        -5.2260   -4.7100   -7.0900 n         1 561     -0.483100
     25 C41        -6.8990   -8.5810   -9.6160 ca        1 561     -0.122000
     26 C42        -5.8240   -5.2350   -8.2450 ca        1 561      0.084600
     27 C43        -6.6970   -4.9800  -10.5070 ca        1 561     -0.097000
     28 C44        -6.1360   -4.4300   -9.3380 ca        1 561     -0.163000
     29 C45        -6.0970   -6.6550   -8.3170 ca        1 561     -0.060000
     30 C46        -6.6420   -7.1840   -9.5160 ca        1 561     -0.017000
     31 C47        -6.9390   -6.3260  -10.6070 ca        1 561     -0.156000
     32 C48        -5.8550   -7.5530   -7.2390 ca        1 561     -0.117000
     33 C49        -6.1160   -8.8970   -7.3590 ca        1 561     -0.134000
     34 C50        -6.6390   -9.4210   -8.5630 ca        1 561     -0.127000
     35 H3         -1.8790   -0.1760    0.7000 ha        1 561      0.158000
     36 H5          2.5870   -2.4770    0.1220 ha        1 561      0.145000
     37 H8          0.9170    0.0360   -3.7530 h4        1 561      0.185000
     38 HO1         0.9210   -2.8050    3.2130 ho        1 561      0.488000
     39 H9         -1.6050    1.8140   -1.5580 h1        1 561      0.063700
     40 HN3        -1.7680    2.3620   -3.6850 hn        1 561      0.325800
     41 HN1        -3.4260    1.4770   -4.6250 hn        1 561      0.332800
     42 H101       -2.7500   -0.8630   -1.5360 h1        1 561      0.079200
     43 H102       -3.6600    0.7090   -1.3870 h1        1 561      0.079200
     44 H311       -3.7280   -1.2130   -5.9350 hc        1 561      0.068200
     45 H312       -5.3530   -1.1110   -5.1550 hc        1 561      0.068200
     46 H321       -3.5630   -3.6350   -5.3150 hc        1 561      0.066700
     47 H322       -5.1880   -3.5500   -4.5110 hc        1 561      0.066700
     48 H331       -2.6990   -1.9490   -3.7570 h1        1 561      0.044200
     49 H332       -4.3370   -1.8880   -2.9570 h1        1 561      0.044200
     50 HN11       -4.7550   -5.3610   -6.5040 hn        1 561      0.317500
     51 H43        -6.9310   -4.3040  -11.3430 ha        1 561      0.132000
     52 H44        -5.9570   -3.3420   -9.3070 ha        1 561      0.171000
     53 H47        -7.3660   -6.7610  -11.5220 ha        1 561      0.129000
     54 H48        -5.4670   -7.1870   -6.2770 ha        1 561      0.125000
     55 H49        -5.9250   -9.5790   -6.5170 ha        1 561      0.132000
     56 H50        -6.8350  -10.5000   -8.6400 ha        1 561      0.129000
     57 H41        -7.3120   -8.9690  -10.5590 ha        1 561      0.130000
@<TRIPOS>BOND
     1    1    2 ar
     2    1    3 ar
     3    1    6 1
     4    2    5 ar
     5    2   10 1
     6    3    4 ar
     7    3   35 1
     8    4    7 ar
     9    4   11 1
    10    5    7 ar
    11    5   36 1
    12    6    8 2
    13    6   14 1
    14    7    9 1
    15    8   10 1
    16    8   37 1
    17    9   38 1
    18   11   12 1
    19   11   13 1
    20   14   15 1
    21   14   18 1
    22   14   39 1
    23   15   16 1
    24   15   40 1
    25   16   17 1
    26   16   41 1
    27   17   18 1
    28   17   21 1
    29   18   42 1
    30   18   43 1
    31   19   20 1
    32   19   21 1
    33   19   44 1
    34   19   45 1
    35   20   22 1
    36   20   46 1
    37   20   47 1
    38   21   48 1
    39   21   49 1
    40   22   23 2
    41   22   24 1
    42   24   26 1
    43   24   50 1
    44   25   30 ar
    45   25   34 ar
    46   25   57 1
    47   26   28 ar
    48   26   29 ar
    49   27   28 ar
    50   27   31 ar
    51   27   51 1
    52   28   52 1
    53   29   30 ar
    54   29   32 ar
    55   30   31 ar
    56   31   53 1
    57   32   33 ar
    58   32   54 1
    59   33   34 ar
    60   33   55 1
    61   34   56 1
@<TRIPOS>SUBSTRUCTURE
     1 561         1 TEMP              0 ****  ****    0 ROOT
