@<TRIPOS>MOLECULE
molecule
   58    61     1     0     0
SMALL
bcc


@<TRIPOS>ATOM
      1 C4           0.0000     0.0000     0.0000 ca         1 563       0.695200
      2 C5           1.3910     0.0000     0.0000 ca         1 563      -0.476600
      3 C6           2.0540     0.0000     1.2230 ca         1 563       0.754200
      4 N1           1.3380    -0.0000     2.3470 nb         1 563      -0.874000
      5 N3          -0.6470    -0.0000     1.1640 nb         1 563      -0.827000
      6 CAN         -2.1520     0.0050    -0.9520 c3         1 563       0.127300
      7 CAL         -2.8900    -0.0690    -2.2920 c3         1 563       0.157800
      8 NBE         -2.5000     1.0750    -3.1270 n3         1 563      -0.724600
      9 CAC         -2.9330     2.3410    -2.5220 c3         1 563       0.141100
     10 CAM         -1.0500     1.0770    -3.3690 c3         1 563       0.157800
     11 CAO         -0.3120     1.1500    -2.0290 c3         1 563       0.127300
     12 NBF         -0.7040     0.0060    -1.1950 nh         1 563      -0.686300
     13 NAT          3.4400    -0.0010     1.2730 nu         1 563      -0.841600
     14 CBA          4.1820    -0.1520     0.0950 cc         1 563       0.607200
     15 CAJ          5.5800    -0.2620     0.0100 cc         1 563      -0.375300
     16 CAX          5.9060    -0.3940    -1.2960 cd         1 563      -0.043600
     17 CAB          7.2990    -0.5420    -1.8520 c3         1 563      -0.031800
     18 NAU          4.7630    -0.3690    -2.0130 na         1 563      -0.042600
     19 NAP          3.6940    -0.2220    -1.1200 nd         1 563      -0.563800
     20 C2           0.0160    -0.0000     2.3080 ca         1 563       0.952300
     21 OAV         -0.6770    -0.0010     3.4720 os         1 563      -0.333400
     22 CAZ          0.0240     0.1020     4.6320 ca         1 563       0.102100
     23 CAI          0.6700     1.2880     4.9500 ca         1 563      -0.109500
     24 CAG          1.3820     1.3930     6.1270 ca         1 563      -0.136000
     25 CAH          0.0880    -0.9770     5.5020 ca         1 563      -0.109500
     26 CAF          0.7990    -0.8740     6.6810 ca         1 563      -0.136000
     27 CAY          1.4520     0.3110     6.9960 ca         1 563       0.051600
     28 NAS          2.1720     0.4170     8.1910 ns         1 563      -0.474100
     29 CAW          3.3170     1.1280     8.2270 c          1 563       0.663300
     30 OAD          3.6800     1.7460     7.2430 o          1 563      -0.602100
     31 CAE          4.1270     1.1570     9.4530 ce         1 563      -0.254200
     32 CAA          5.2560     1.8590     9.4890 c2         1 563      -0.124000
     33 H1           1.9460     0.0000    -0.9310 ha         1 563       0.206000
     34 H2          -2.4320     0.9170    -0.4370 h1         1 563       0.057700
     35 H3          -2.4160    -0.8540    -0.3480 h1         1 563       0.057700
     36 H4          -2.6270    -0.9900    -2.7970 h1         1 563       0.063200
     37 H5          -3.9590    -0.0390    -2.1160 h1         1 563       0.063200
     38 H7          -2.3890     2.5060    -1.6000 h1         1 563       0.034700
     39 H8          -2.7360     3.1560    -3.2080 h1         1 563       0.034700
     40 H9          -3.9950     2.2960    -2.3110 h1         1 563       0.034700
     41 H10         -0.7700     0.1670    -3.8850 h1         1 563       0.063200
     42 H11         -0.7870     1.9370    -3.9730 h1         1 563       0.063200
     43 H12          0.7560     1.1200    -2.2050 h1         1 563       0.057700
     44 H13         -0.5750     2.0720    -1.5240 h1         1 563       0.057700
     45 H14          3.9090     0.0880     2.1530 hn         1 563       0.475800
     46 H15          6.2670    -0.3120     0.8460 ha         1 563       0.159000
     47 H16          7.2830    -0.3550    -2.9190 hc         1 563       0.054033
     48 H17          7.6570    -1.5470    -1.6660 hc         1 563       0.054033
     49 H18          7.9580     0.1700    -1.3700 hc         1 563       0.054033
     50 H19          4.6910    -0.4470    -3.0080 hn         1 563       0.330700
     51 H20          0.6160     2.1320     4.2730 ha         1 563       0.145500
     52 H21          1.8890     2.3190     6.3740 ha         1 563       0.150000
     53 H22         -0.4220    -1.9010     5.2560 ha         1 563       0.145500
     54 H23          0.8500    -1.7180     7.3590 ha         1 563       0.150000
     55 H24          1.8270    -0.0170     9.0230 hn         1 563       0.325500
     56 H25          3.8040     0.6060    10.3280 ha         1 563       0.127000
     57 H27          5.8530     1.8800    10.3930 ha         1 563       0.131000
     58 H28          5.5800     2.4100     8.6140 ha         1 563       0.131000
@<TRIPOS>BOND
     1     9     8 1   
     2     7     8 1   
     3     7     6 1   
     4     8    10 1   
     5     6    12 1   
     6    25    26 ar  
     7    25    22 ar  
     8    26    27 ar  
     9    12     1 1   
    10    12    11 1   
    11    10    11 1   
    12     5     1 ar  
    13     5    20 ar  
    14    21    22 1   
    15    21    20 1   
    16     1     2 ar  
    17    22    23 ar  
    18    20     4 ar  
    19    27    28 1   
    20    27    24 ar  
    21     2     3 ar  
    22    28    29 1   
    23     4     3 ar  
    24     3    13 1   
    25    23    24 ar  
    26    29    30 2   
    27    29    31 1   
    28    31    32 2   
    29    13    14 1   
    30    14    15 1   
    31    14    19 2   
    32    15    16 2   
    33    19    18 1   
    34    16    18 1   
    35    16    17 1   
    36     2    33 1   
    37     6    34 1   
    38     6    35 1   
    39     7    36 1   
    40     7    37 1   
    41     9    38 1   
    42     9    39 1   
    43     9    40 1   
    44    10    41 1   
    45    10    42 1   
    46    11    43 1   
    47    11    44 1   
    48    13    45 1   
    49    15    46 1   
    50    17    47 1   
    51    17    48 1   
    52    17    49 1   
    53    18    50 1   
    54    23    51 1   
    55    24    52 1   
    56    25    53 1   
    57    26    54 1   
    58    28    55 1   
    59    31    56 1   
    60    32    57 1   
    61    32    58 1   
@<TRIPOS>SUBSTRUCTURE
     1 563         1 TEMP              0 ****  ****    0 ROOT
