@<TRIPOS>MOLECULE
563
   58    61     1     0     0
SMALL
bcc


@<TRIPOS>ATOM
      1 C4           0.0000     0.0000     0.0000 ca         1 563       0.574200
      2 C5           1.3910     0.0000     0.0000 ca         1 563      -0.492600
      3 C6           2.0540     0.0000     1.2230 ca         1 563       0.558200
      4 N1           1.3380    -0.0000     2.3470 nb         1 563      -0.769000
      5 N3          -0.6470    -0.0000     1.1640 nb         1 563      -0.723000
      6 CAN         -2.1520     0.0050    -0.9520 c3         1 563       0.096300
      7 CAL         -2.8900    -0.0690    -2.2920 c3         1 563       0.153300
      8 NBE         -2.5000     1.0750    -3.1270 n3         1 563      -0.544600
      9 CAC         -2.9330     2.3410    -2.5220 c3         1 563       0.167100
     10 CAM         -1.0500     1.0770    -3.3690 c3         1 563       0.153300
     11 CAO         -0.3120     1.1500    -2.0290 c3         1 563       0.096300
     12 NBF         -0.7040     0.0060    -1.1950 nh         1 563      -0.449300
     13 NAT          3.4400    -0.0010     1.2730 nu         1 563      -0.358600
     14 CBA          4.1820    -0.1520     0.0950 cc         1 563       0.474200
     15 CAJ          5.5800    -0.2620     0.0100 cc         1 563      -0.361300
     16 CAX          5.9060    -0.3940    -1.2960 cd         1 563      -0.220600
     17 CAB          7.2990    -0.5420    -1.8520 c3         1 563       0.098200
     18 NAU          4.7630    -0.3690    -2.0130 na         1 563       0.454400
     19 NAP          3.6940    -0.2220    -1.1200 nd         1 563      -0.705800
     20 C2           0.0160    -0.0000     2.3080 ca         1 563       0.876300
     21 OAV         -0.6770    -0.0010     3.4720 os         1 563      -0.324400
     22 CAZ          0.0240     0.1020     4.6320 ca         1 563       0.113100
     23 CAI          0.6700     1.2880     4.9500 ca         1 563      -0.094500
     24 CAG          1.3820     1.3930     6.1270 ca         1 563      -0.103000
     25 CAH          0.0880    -0.9770     5.5020 ca         1 563      -0.094500
     26 CAF          0.7990    -0.8740     6.6810 ca         1 563      -0.103000
     27 CAY          1.4520     0.3110     6.9960 ca         1 563      -0.103400
     28 NAS          2.1720     0.4170     8.1910 ns         1 563      -0.025100
     29 CAW          3.3170     1.1280     8.2270 c          1 563       0.569300
     30 OAD          3.6800     1.7460     7.2430 o          1 563      -0.645100
     31 CAE          4.1270     1.1570     9.4530 ce         1 563      -0.247200
     32 CAA          5.2560     1.8590     9.4890 c2         1 563      -0.052000
     33 H1           1.9460     0.0000    -0.9310 ha         1 563       0.208000
     34 H2          -2.4320     0.9170    -0.4370 h1         1 563       0.034450
     35 H3          -2.4160    -0.8540    -0.3480 h1         1 563       0.034450
     36 H4          -3.9590    -0.0390    -2.1160 h1         1 563       0.028950
     37 H5          -2.6270    -0.9900    -2.7970 h1         1 563       0.028950
     38 H7          -2.4030     2.4970    -1.5900 h1         1 563       0.005367
     39 H8          -2.7190     3.1580    -3.2000 h1         1 563       0.005367
     40 H9          -3.9990     2.3030    -2.3280 h1         1 563       0.005367
     41 H10         -0.7870     1.9370    -3.9730 h1         1 563       0.028950
     42 H11         -0.7700     0.1670    -3.8850 h1         1 563       0.028950
     43 H12          0.7560     1.1200    -2.2050 h1         1 563       0.034450
     44 H13         -0.5750     2.0720    -1.5240 h1         1 563       0.034450
     45 H14          3.9090     0.0860     2.1530 hn         1 563       0.296800
     46 H15          6.2770    -0.1760     0.8350 ha         1 563       0.143000
     47 H16          7.8150    -1.3370    -1.3270 hc         1 563       0.012367
     48 H17          7.8400     0.3870    -1.7220 hc         1 563       0.012367
     49 H18          7.2430    -0.7830    -2.9060 hc         1 563       0.012367
     50 H19          4.6910    -0.4470    -3.0080 hn         1 563       0.148700
     51 H20          0.6160     2.1320     4.2730 ha         1 563       0.114500
     52 H21          1.8890     2.3190     6.3740 ha         1 563       0.124500
     53 H22         -0.4220    -1.9010     5.2560 ha         1 563       0.114500
     54 H23          0.8500    -1.7180     7.3590 ha         1 563       0.124500
     55 H24          1.8270    -0.0170     9.0240 hn         1 563       0.166500
     56 H25          3.8040     0.6060    10.3280 ha         1 563       0.104000
     57 H27          5.5800     2.4100     8.6140 ha         1 563       0.092000
     58 H28          5.8530     1.8800    10.3930 ha         1 563       0.092000
@<TRIPOS>BOND
     1     1     2 ar  
     2     1     5 ar  
     3     1    12 1   
     4     2     3 ar  
     5     2    33 1   
     6     3     4 ar  
     7     3    13 1   
     8     4    20 ar  
     9     5    20 ar  
    10     6     7 1   
    11     6    12 1   
    12     6    34 1   
    13     6    35 1   
    14     7     8 1   
    15     7    36 1   
    16     7    37 1   
    17     8     9 1   
    18     8    10 1   
    19     9    38 1   
    20     9    39 1   
    21     9    40 1   
    22    10    11 1   
    23    10    41 1   
    24    10    42 1   
    25    11    12 1   
    26    11    43 1   
    27    11    44 1   
    28    13    14 1   
    29    13    45 1   
    30    14    15 1   
    31    14    19 2   
    32    15    16 2   
    33    15    46 1   
    34    16    17 1   
    35    16    18 1   
    36    17    47 1   
    37    17    48 1   
    38    17    49 1   
    39    18    19 1   
    40    18    50 1   
    41    20    21 1   
    42    21    22 1   
    43    22    23 ar  
    44    22    25 ar  
    45    23    24 ar  
    46    23    51 1   
    47    24    27 ar  
    48    24    52 1   
    49    25    26 ar  
    50    25    53 1   
    51    26    27 ar  
    52    26    54 1   
    53    27    28 1   
    54    28    29 1   
    55    28    55 1   
    56    29    30 2   
    57    29    31 1   
    58    31    32 2   
    59    31    56 1   
    60    32    57 1   
    61    32    58 1   
@<TRIPOS>SUBSTRUCTURE
     1 563         1 TEMP              0 ****  ****    0 ROOT
