@<TRIPOS>MOLECULE
molecule
   54    57     1     0     0
SMALL
bcc


@<TRIPOS>ATOM
      1 C1           0.0000     0.0000     0.0000 c          1 564       0.877200
      2 C2           1.4770     0.0000     0.0000 ca         1 564      -0.074600
      3 C3           2.1740     0.0000     1.2210 ca         1 564      -0.071000
      4 C4           3.5320     0.0010     1.2460 ca         1 564      -0.174000
      5 C5           4.2590     0.0000     0.0420 ca         1 564      -0.056000
      6 C10          3.5670    -0.0010    -1.1960 ca         1 564      -0.020000
      7 C11          2.1650    -0.0010    -1.2020 ca         1 564      -0.119000
      8 C15         10.4270    -0.3880     1.7970 ca         1 564      -0.071300
      9 C16         11.7210    -1.1360     1.9850 c3         1 564      -0.016700
     10 C17         12.5230    -0.5420     3.1400 c3         1 564      -0.071400
     11 C18         11.6060    -0.4430     4.3640 c3         1 564      -0.071400
     12 C19         10.5690     0.6460     4.1020 c3         1 564      -0.019700
     13 C20          9.8940     0.4260     2.7710 ca         1 564      -0.062300
     14 C23         12.5470    -1.0460     0.6990 c3         1 564      -0.081600
     15 C24         11.4150    -2.6050     2.2850 c3         1 564      -0.081600
     16 C25          9.5160     0.6180     5.2110 c3         1 564      -0.081100
     17 C26         11.2610     2.0110     4.0960 c3         1 564      -0.081100
     18 O1          -0.6070     0.0000    -1.0520 o          1 564      -0.829300
     19 O2          -0.6740    -0.0000     1.1660 o          1 564      -0.829300
     20 C6           5.6620    -0.0060     0.0480 ca         1 564      -0.071000
     21 C7           6.3500    -0.0010    -1.1550 ca         1 564      -0.202600
     22 C8           5.6510    -0.0020    -2.3770 ca         1 564      -0.107000
     23 C9           4.2950    -0.0020    -2.4010 ca         1 564      -0.124000
     24 C13          8.5590     0.1170     0.3560 ca         1 564      -0.141600
     25 C14          9.7640    -0.5430     0.5900 ca         1 564      -0.101000
     26 C21          8.6920     1.0870     2.5430 ca         1 564      -0.134000
     27 C22          8.0230     0.9390     1.3490 ca         1 564      -0.115000
     28 C12          7.8270    -0.0020    -1.1550 c          1 564       0.597300
     29 O3           8.4350    -0.1430    -2.1990 o          1 564      -0.536100
     30 H3           1.7270     0.0010     2.2080 ha         1 564       0.149000
     31 H4           3.9260    -0.0390     2.2540 ha         1 564       0.117000
     32 H11          1.6310     0.0000    -2.1450 ha         1 564       0.156000
     33 H171        12.8750     0.4450     2.8680 hc         1 564       0.043200
     34 H172        13.3640    -1.1860     3.3670 hc         1 564       0.043200
     35 H181        11.0960    -1.3890     4.5000 hc         1 564       0.046200
     36 H182        12.1980    -0.1650     5.2270 hc         1 564       0.046200
     37 H231        12.1200    -1.7000    -0.0510 hc         1 564       0.036867
     38 H232        13.5670    -1.3480     0.9040 hc         1 564       0.036867
     39 H233        12.5380    -0.0250     0.3360 hc         1 564       0.036867
     40 H241        10.5150    -2.6710     2.8840 hc         1 564       0.036867
     41 H242        11.2700    -3.1410     1.3550 hc         1 564       0.036867
     42 H243        12.2440    -3.0420     2.8290 hc         1 564       0.036867
     43 H251        10.0080     0.5400     6.1730 hc         1 564       0.036200
     44 H252         8.8640    -0.2350     5.0690 hc         1 564       0.036200
     45 H253         8.9310     1.5300     5.1770 hc         1 564       0.036200
     46 H261        11.6590     2.2100     3.1080 hc         1 564       0.036200
     47 H262        10.5440     2.7800     4.3580 hc         1 564       0.036200
     48 H263        12.0690     2.0090     4.8180 hc         1 564       0.036200
     49 H6           6.2040    -0.0050     0.9870 ha         1 564       0.140000
     50 H8           6.2030     0.0010    -3.3090 ha         1 564       0.133000
     51 H9           3.7710    -0.0030    -3.3500 ha         1 564       0.131000
     52 H14         10.1850    -1.1820    -0.1770 ha         1 564       0.142000
     53 H21          8.2770     1.7240     3.3130 ha         1 564       0.133000
     54 H22          7.0880     1.4580     1.1810 ha         1 564       0.151000
@<TRIPOS>BOND
     1     1     2 1   
     2     1    18 1   
     3     1    19 1   
     4     2     3 ar  
     5     2     7 ar  
     6     3     4 ar  
     7     3    30 1   
     8     4     5 ar  
     9     4    31 1   
    10     5     6 ar  
    11     5    20 ar  
    12     6     7 ar  
    13     6    23 ar  
    14     7    32 1   
    15     8     9 1   
    16     8    13 ar  
    17     8    25 ar  
    18     9    10 1   
    19     9    14 1   
    20     9    15 1   
    21    10    11 1   
    22    10    33 1   
    23    10    34 1   
    24    11    12 1   
    25    11    35 1   
    26    11    36 1   
    27    12    13 1   
    28    12    16 1   
    29    12    17 1   
    30    13    26 ar  
    31    14    37 1   
    32    14    38 1   
    33    14    39 1   
    34    15    40 1   
    35    15    41 1   
    36    15    42 1   
    37    16    43 1   
    38    16    44 1   
    39    16    45 1   
    40    17    46 1   
    41    17    47 1   
    42    17    48 1   
    43    20    21 ar  
    44    20    49 1   
    45    21    22 ar  
    46    21    28 1   
    47    22    23 ar  
    48    22    50 1   
    49    23    51 1   
    50    24    25 ar  
    51    24    27 ar  
    52    24    28 1   
    53    25    52 1   
    54    26    27 ar  
    55    26    53 1   
    56    27    54 1   
    57    28    29 2   
@<TRIPOS>SUBSTRUCTURE
     1 564         1 TEMP              0 ****  ****    0 ROOT
