@<TRIPOS>MOLECULE
564
   54    57     1     0     0
SMALL
bcc


@<TRIPOS>ATOM
      1 C1         -0.1200    0.0330   -0.0320 c         1 564      0.907200
      2 C2          1.4010   -0.0700   -0.0110 ca        1 564     -0.106600
      3 C3          2.0550   -0.4420    1.1930 ca        1 564     -0.085000
      4 C4          3.4230   -0.5380    1.2500 ca        1 564     -0.163000
      5 C5          4.2130   -0.2650    0.0990 ca        1 564     -0.066000
      6 C10         3.5630    0.1010   -1.1120 ca        1 564     -0.022000
      7 C11         2.1480    0.1930   -1.1390 ca        1 564     -0.122000
      8 C15        10.4310   -0.3980    1.7730 ca        1 564     -0.077300
      9 C16        11.6900   -1.1940    1.9970 c3        1 564     -0.002700
     10 C17        12.5030   -0.6300    3.1630 c3        1 564     -0.069400
     11 C18        11.6400   -0.2890    4.3510 c3        1 564     -0.069400
     12 C19        10.6070    0.7920    4.0290 c3        1 564     -0.006700
     13 C20         9.9400    0.5310    2.7040 ca        1 564     -0.045300
     14 C23        12.5780   -1.1450    0.7540 c3        1 564     -0.085600
     15 C24        11.3220   -2.6480    2.2760 c3        1 564     -0.085600
     16 C25         9.5720    0.7870    5.1540 c3        1 564     -0.084600
     17 C26        11.2810    2.1600    3.9910 c3        1 564     -0.084600
     18 O1         -0.6730    0.3660   -1.1170 o         1 564     -0.822800
     19 O2         -0.7380   -0.2210    1.0400 o         1 564     -0.822800
     20 C6          5.6280   -0.3440    0.1310 ca        1 564     -0.065000
     21 C7          6.3800   -0.0710   -0.9960 ca        1 564     -0.196600
     22 C8          5.7250    0.2740   -2.2110 ca        1 564     -0.114000
     23 C9          4.3580    0.3630   -2.2620 ca        1 564     -0.123000
     24 C13         8.5540    0.0980    0.2920 ca        1 564     -0.159600
     25 C14         9.7230   -0.6080    0.5800 ca        1 564     -0.085000
     26 C21         8.7820    1.2610    2.3920 ca        1 564     -0.145000
     27 C22         8.0900    1.0510    1.2050 ca        1 564     -0.091000
     28 C12         7.8500   -0.1530   -0.9910 c         1 564      0.596300
     29 O3          8.5000   -0.4150   -2.0160 o         1 564     -0.557100
     30 H3          1.4170   -0.6460    2.0690 ha        1 564      0.160000
     31 H4          3.9330   -0.8260    2.1800 ha        1 564      0.112000
     32 H11         1.6310    0.4780   -2.0700 ha        1 564      0.157000
     33 H171       13.2760   -1.3840    3.4670 hc        1 564      0.040200
     34 H172       13.0480    0.2880    2.8190 hc        1 564      0.040200
     35 H181       12.2880    0.0680    5.1950 hc        1 564      0.041200
     36 H182       11.1070   -1.2110    4.7050 hc        1 564      0.041200
     37 H231       12.1350   -1.7450   -0.0760 hc        1 564      0.036533
     38 H232       13.5840   -1.5660    0.9920 hc        1 564      0.036533
     39 H233       12.7010   -0.0920    0.4060 hc        1 564      0.036533
     40 H241       10.7230   -3.0620    1.4290 hc        1 564      0.036533
     41 H242       10.7160   -2.7280    3.2100 hc        1 564      0.036533
     42 H243       12.2470   -3.2610    2.3930 hc        1 564      0.036533
     43 H251        8.9230    1.6930    5.1030 hc        1 564      0.036200
     44 H252        8.9260   -0.1200    5.0830 hc        1 564      0.036200
     45 H253       10.0900    0.7840    6.1430 hc        1 564      0.036200
     46 H261       10.5310    2.9510    3.7520 hc        1 564      0.036200
     47 H262       12.0810    2.1830    3.2130 hc        1 564      0.036200
     48 H263       11.7380    2.3880    4.9840 hc        1 564      0.036200
     49 H6          6.1170   -0.6350    1.0740 ha        1 564      0.127000
     50 H8          6.3450    0.4610   -3.1010 ha        1 564      0.134000
     51 H9          3.8470    0.6360   -3.1980 ha        1 564      0.131000
     52 H14        10.0890   -1.3410   -0.1580 ha        1 564      0.147000
     53 H21         8.4070    2.0150    3.1010 ha        1 564      0.133000
     54 H22         7.1790    1.6290    0.9820 ha        1 564      0.152000
@<TRIPOS>BOND
     1    1    2 1   
     2    1   18 1   
     3    1   19 1   
     4    2    3 ar  
     5    2    7 ar  
     6    3    4 ar  
     7    3   30 1   
     8    4    5 ar  
     9    4   31 1   
    10    5    6 ar  
    11    5   20 ar  
    12    6    7 ar  
    13    6   23 ar  
    14    7   32 1   
    15    8    9 1   
    16    8   13 ar  
    17    8   25 ar  
    18    9   10 1   
    19    9   14 1   
    20    9   15 1   
    21   10   11 1   
    22   10   33 1   
    23   10   34 1   
    24   11   12 1   
    25   11   35 1   
    26   11   36 1   
    27   12   13 1   
    28   12   16 1   
    29   12   17 1   
    30   13   26 ar  
    31   14   37 1   
    32   14   38 1   
    33   14   39 1   
    34   15   40 1   
    35   15   41 1   
    36   15   42 1   
    37   16   43 1   
    38   16   44 1   
    39   16   45 1   
    40   17   46 1   
    41   17   47 1   
    42   17   48 1   
    43   20   21 ar  
    44   20   49 1   
    45   21   22 ar  
    46   21   28 1   
    47   22   23 ar  
    48   22   50 1   
    49   23   51 1   
    50   24   25 ar  
    51   24   27 ar  
    52   24   28 1   
    53   25   52 1   
    54   26   27 ar  
    55   26   53 1   
    56   27   54 1   
    57   28   29 2   
@<TRIPOS>SUBSTRUCTURE
     1 564         1 TEMP              0 ****  ****    0 ROOT
