@<TRIPOS>MOLECULE
molecule
   45    46     1     0     0
SMALL
bcc


@<TRIPOS>ATOM
      1 C1           0.0000     0.0000     0.0000 ca         1 565      -0.176000
      2 C2           1.3950     0.0000     0.0000 ca         1 565       0.182900
      3 C3           2.0750     0.0000     1.2070 ca         1 565      -0.180300
      4 C4           1.3960     0.0000     2.4160 ca         1 565      -0.148000
      5 C5           0.0010     0.0000     2.4160 ca         1 565       0.096900
      6 C6          -0.6970     0.0000     1.2080 ca         1 565       0.159900
      7 F9          -0.6690     0.0000     3.5760 f          1 565      -0.103900
      8 F10          2.0570    -0.0010    -1.1660 f          1 565      -0.093900
      9 C11          3.5840     0.0010     1.2110 c3         1 565      -0.047100
     10 C12          4.2270     1.4050     1.2120 c3         1 565       0.125500
     11 C15          5.7040     1.3980     0.8210 c3         1 565      -0.197400
     12 C16          5.9030     0.9240    -0.5980 c          1 565       0.679100
     13 N19          7.1050     0.2550    -0.8750 n          1 565      -0.484800
     14 N20          4.1410     1.9530     2.5730 nz         1 565      -0.815600
     15 O22          5.0160     1.1430    -1.4260 o          1 565      -0.549100
     16 C25          8.1400     0.0130     0.1380 c3         1 565       0.102000
     17 C26          7.9650    -1.3580     0.7950 c3         1 565      -0.136400
     18 C27          8.0850    -2.5140    -0.1950 c3         1 565       0.117000
     19 N28          6.9280    -2.6510    -1.0710 ns         1 565      -0.599900
     20 C29          6.5220    -1.7700    -2.0540 c          1 565       0.678500
     21 C30          7.2980    -0.4600    -2.1500 c3         1 565       0.048700
     22 C37          6.9580     0.3600    -3.3930 c3         1 565      -0.087100
     23 O42          5.6010    -2.0400    -2.8270 o          1 565      -0.592500
     24 F44         -2.0360    -0.0010     1.2090 f          1 565      -0.089900
     25 H1          -0.5420    -0.0000    -0.9380 ha         1 565       0.191000
     26 H4           1.9430     0.0000     3.3510 ha         1 565       0.138000
     27 H111         3.9280    -0.5320     0.3320 hc         1 565       0.091700
     28 H112         3.9240    -0.5320     2.0900 hc         1 565       0.091700
     29 H12          3.6810     2.0480     0.5320 hx         1 565       0.142700
     30 H151         6.0990     2.4020     0.9160 hc         1 565       0.078700
     31 H152         6.2450     0.7410     1.4920 hc         1 565       0.078700
     32 H201         4.3870     1.2440     3.2350 hn         1 565       0.454133
     33 H202         4.7720     2.7250     2.6610 hn         1 565       0.454133
     34 H251         9.1140     0.0560    -0.3340 h1         1 565       0.059200
     35 H252         8.0750     0.7800     0.9000 h1         1 565       0.059200
     36 H261         8.7240    -1.4760     1.5600 hc         1 565       0.052700
     37 H262         6.9870    -1.3980     1.2590 hc         1 565       0.052700
     38 H271         8.9650    -2.3550    -0.8070 h1         1 565       0.060200
     39 H272         8.2070    -3.4350     0.3630 h1         1 565       0.060200
     40 HN28         6.3680    -3.4710    -0.9460 hn         1 565       0.321500
     41 H30          8.3480    -0.7180    -2.2120 h1         1 565       0.073700
     42 H371         5.8900     0.3230    -3.5700 hc         1 565       0.065367
     43 H372         7.4810    -0.0490    -4.2490 hc         1 565       0.065367
     44 H373         7.2640     1.3890    -3.2420 hc         1 565       0.065367
     45 H203         3.2020     2.2480     2.7550 hn         1 565       0.454133
@<TRIPOS>BOND
     1     1     2 ar
     2     1     6 ar
     3     1    25 1
     4     2     8 1
     5     2     3 ar
     6     3     9 1
     7     3     4 ar
     8     4     5 ar
     9     4    26 1
    10     5     6 ar
    11     5     7 1
    12     6    24 1
    13     9    10 1
    14     9    27 1
    15     9    28 1
    16    10    14 1
    17    10    11 1
    18    10    29 1
    19    11    12 1
    20    11    30 1
    21    11    31 1
    22    12    13 1
    23    12    15 2
    24    13    16 1
    25    13    21 1
    26    14    32 1
    27    14    33 1
    28    16    17 1
    29    16    34 1
    30    16    35 1
    31    17    18 1
    32    17    36 1
    33    17    37 1
    34    18    19 1
    35    18    38 1
    36    18    39 1
    37    19    20 1
    38    19    40 1
    39    20    23 2
    40    20    21 1
    41    21    22 1
    42    21    41 1
    43    22    42 1
    44    22    43 1
    45    22    44 1
    46    45    14 1
@<TRIPOS>SUBSTRUCTURE
     1 565         1 TEMP              0 ****  ****    0 ROOT
