@<TRIPOS>MOLECULE
molecule
   43    45     1     0     0
SMALL
bcc


@<TRIPOS>ATOM
      1 C1           0.0000     0.0000     0.0000 c3         1 566      -0.076900
      2 C2           1.5310     0.0000     0.0000 c3         1 566      -0.099900
      3 C3           2.0410     0.0000     1.4430 c3         1 566       0.140700
      4 C4           1.5310    -1.2490     2.1640 c3         1 566      -0.099900
      5 C5           0.0000    -1.2490     2.1640 c3         1 566      -0.076900
      6 C6          -0.5100    -1.2490     0.7210 c3         1 566      -0.082400
      7 C15          4.2640    -0.9650     0.8950 c          1 566       0.704500
      8 C16          5.7300    -0.6470     1.0870 c3         1 566      -0.165400
      9 C17          5.7420     0.4320     2.1950 c3         1 566      -0.172700
     10 C18          4.3340     1.0490     2.0490 c3         1 566       0.110000
     11 N19          3.5060    -0.0000     1.4420 n          1 566      -0.487800
     12 C24          7.9810    -1.9120     6.1640 ca         1 566      -0.123000
     13 C25          7.9990    -2.5890     7.3680 ca         1 566      -0.116000
     14 C26          6.8450    -3.1800     7.8480 ca         1 566      -0.135000
     15 C27          5.6680    -3.0900     7.1290 ca         1 566      -0.116000
     16 C28          5.6400    -2.4100     5.9280 ca         1 566      -0.123000
     17 C29          6.7980    -1.8160     5.4420 ca         1 566       0.101600
     18 C33          5.9190    -0.1930     3.5540 c          1 566       0.676100
     19 N35          7.0360    -0.8940     3.8340 ns         1 566      -0.567100
     20 O37          5.0560    -0.0670     4.3970 o          1 566      -0.609100
     21 O38          3.8350    -1.9470     0.3250 o          1 566      -0.636500
     22 H11         -0.3600    -0.0020    -1.0220 hc         1 566       0.040200
     23 H12         -0.3600     0.8840     0.5130 hc         1 566       0.040200
     24 H21          1.8910    -0.8860    -0.5090 hc         1 566       0.059700
     25 H22          1.8910     0.8860    -0.5090 hc         1 566       0.059700
     26 H3           1.6750     0.8830     1.9530 h1         1 566       0.057700
     27 H41          1.8910    -2.1330     1.6510 hc         1 566       0.059700
     28 H42          1.8910    -1.2470     3.1860 hc         1 566       0.059700
     29 H51         -0.3600    -2.1360     2.6720 hc         1 566       0.040200
     30 H52         -0.3600    -0.3630     2.6730 hc         1 566       0.040200
     31 H61         -1.5930    -1.2470     0.7220 hc         1 566       0.044200
     32 H62         -0.1450    -2.1330     0.2110 hc         1 566       0.044200
     33 H161         6.2680    -1.5290     1.4130 hc         1 566       0.078700
     34 H162         6.1540    -0.2520     0.1710 hc         1 566       0.078700
     35 H17          6.5080     1.1730     2.0000 hc         1 566       0.078700
     36 H181         4.3720     1.9160     1.4000 h1         1 566       0.063200
     37 H182         3.9420     1.3180     3.0220 h1         1 566       0.063200
     38 H25          8.9210    -2.6630     7.9330 ha         1 566       0.139500
     39 H26          6.8630    -3.7130     8.7910 ha         1 566       0.135000
     40 H27          4.7650    -3.5540     7.5080 ha         1 566       0.139500
     41 H28          4.7170    -2.3380     5.3660 ha         1 566       0.150000
     42 HN35         7.8970    -0.9810     3.3310 hn         1 566       0.333500
     43 H24          8.8850    -1.4490     5.7880 ha         1 566       0.150000
@<TRIPOS>BOND
     1     1     2 1   
     2     1     6 1   
     3     1    22 1   
     4     1    23 1   
     5     2     3 1   
     6     2    24 1   
     7     2    25 1   
     8     3     4 1   
     9     3    11 1   
    10     3    26 1   
    11     4     5 1   
    12     4    27 1   
    13     4    28 1   
    14     5     6 1   
    15     5    29 1   
    16     5    30 1   
    17     6    31 1   
    18     6    32 1   
    19     7     8 1   
    20     7    11 1   
    21     7    21 2   
    22     8     9 1   
    23     8    33 1   
    24     8    34 1   
    25     9    10 1   
    26     9    18 1   
    27     9    35 1   
    28    10    11 1   
    29    10    36 1   
    30    10    37 1   
    31    12    13 ar  
    32    12    17 ar  
    33    12    43 1   
    34    13    14 ar  
    35    13    38 1   
    36    14    15 ar  
    37    14    39 1   
    38    15    16 ar  
    39    15    40 1   
    40    16    17 ar  
    41    16    41 1   
    42    17    19 1   
    43    18    19 1   
    44    18    20 2   
    45    19    42 1   
@<TRIPOS>SUBSTRUCTURE
     1 566         1 TEMP              0 ****  ****    0 ROOT
