@<TRIPOS>MOLECULE
566
   43    45     1     0     0
SMALL
bcc


@<TRIPOS>ATOM
      1 C1          0.0890    0.3550   -0.6430 c3        1 566     -0.073900
      2 C2          1.5740    0.2010   -0.3880 c3        1 566     -0.096900
      3 C3          1.8360   -0.0140    1.1130 c3        1 566      0.120700
      4 C4          1.0680   -1.2630    1.5840 c3        1 566     -0.096900
      5 C5         -0.4130   -1.1060    1.3190 c3        1 566     -0.073900
      6 C6         -0.6880   -0.8460   -0.1480 c3        1 566     -0.080400
      7 C15         4.1440   -1.0050    0.9200 c         1 566      0.695500
      8 C16         5.4070   -1.0330    1.7810 c3        1 566     -0.168400
      9 C17         5.1650   -0.0150    2.8980 c3        1 566     -0.157700
     10 C18         3.7120    0.4840    2.6920 c3        1 566      0.088000
     11 N19         3.2520   -0.0560    1.4230 n         1 566     -0.465800
     12 C24         8.4020   -2.3000    5.6880 ca        1 566     -0.168000
     13 C25         8.9220   -2.8940    6.8320 ca        1 566     -0.104000
     14 C26         8.1820   -2.9300    8.0130 ca        1 566     -0.154000
     15 C27         6.9110   -2.3610    8.0410 ca        1 566     -0.104000
     16 C28         6.3690   -1.7590    6.9080 ca        1 566     -0.168000
     17 C29         7.1090   -1.7190    5.7080 ca        1 566      0.065600
     18 C33         5.3710   -0.5990    4.2910 c         1 566      0.671100
     19 N35         6.6340   -1.1190    4.5290 n         1 566     -0.470100
     20 O37         4.4710   -0.5740    5.1480 o         1 566     -0.584100
     21 O38         3.9740   -1.7020   -0.0900 o         1 566     -0.616500
     22 H11        -0.2870    1.2810   -0.1330 hc        1 566      0.040200
     23 H12        -0.0820    0.4850   -1.7440 hc        1 566      0.040200
     24 H21         2.1110    1.1190   -0.7410 hc        1 566      0.056950
     25 H22         1.9760   -0.6740   -0.9650 hc        1 566      0.056950
     26 H3          1.4180    0.8800    1.6680 h1        1 566      0.053700
     27 H41         1.4600   -2.1630    1.0410 hc        1 566      0.056950
     28 H42         1.2360   -1.4220    2.6810 hc        1 566      0.056950
     29 H51        -0.8170   -0.2570    1.9310 hc        1 566      0.040200
     30 H52        -0.9470   -2.0370    1.6420 hc        1 566      0.040200
     31 H61        -0.4000   -1.7500   -0.7470 hc        1 566      0.043200
     32 H62        -1.7850   -0.6750   -0.3010 hc        1 566      0.043200
     33 H161        6.2920   -0.7610    1.1570 hc        1 566      0.085200
     34 H162        5.5460   -2.0740    2.1650 hc        1 566      0.085200
     35 H17         5.8640    0.8580    2.7860 hc        1 566      0.084700
     36 H181        3.0470    0.1560    3.5400 h1        1 566      0.069200
     37 H182        3.6940    1.6070    2.6390 h1        1 566      0.069200
     38 H25         9.9270   -3.3410    6.7990 ha        1 566      0.134500
     39 H26         8.5990   -3.4020    8.9130 ha        1 566      0.134000
     40 H27         6.3190   -2.3850    8.9690 ha        1 566      0.134500
     41 H28         5.3600   -1.3190    6.9640 ha        1 566      0.150000
     42 HN35        7.2710   -1.1240    3.7620 hn        1 566      0.316500
     43 H24         9.0070   -2.2870    4.7690 ha        1 566      0.150000
@<TRIPOS>BOND
     1    1    2 1   
     2    1    6 1   
     3    1   22 1   
     4    1   23 1   
     5    2    3 1   
     6    2   24 1   
     7    2   25 1   
     8    3    4 1   
     9    3   11 1   
    10    3   26 1   
    11    4    5 1   
    12    4   27 1   
    13    4   28 1   
    14    5    6 1   
    15    5   29 1   
    16    5   30 1   
    17    6   31 1   
    18    6   32 1   
    19    7    8 1   
    20    7   11 1   
    21    7   21 2   
    22    8    9 1   
    23    8   33 1   
    24    8   34 1   
    25    9   10 1   
    26    9   18 1   
    27    9   35 1   
    28   10   11 1   
    29   10   36 1   
    30   10   37 1   
    31   12   13 ar  
    32   12   17 ar  
    33   12   43 1   
    34   13   14 ar  
    35   13   38 1   
    36   14   15 ar  
    37   14   39 1   
    38   15   16 ar  
    39   15   40 1   
    40   16   17 ar  
    41   16   41 1   
    42   17   19 1   
    43   18   19 1   
    44   18   20 2   
    45   19   42 1   
@<TRIPOS>SUBSTRUCTURE
     1 566         1 TEMP              0 ****  ****    0 ROOT
