@<TRIPOS>MOLECULE
molecule
   48    51     1     0     0
SMALL
bcc


@<TRIPOS>ATOM
      1 C1           0.0000     0.0000     0.0000 c3         1 569       0.072300
      2 F1           6.1420     5.8240     0.3480 f          1 569      -0.197633
      3 N1           1.4650     0.0000     0.0000 n          1 569      -0.427300
      4 O1           1.8620    -0.0010     2.2630 o          1 569      -0.510500
      5 C2           2.2330     0.0000     1.1100 c          1 569       0.707500
      6 F2           7.6490     6.5080     1.9230 f          1 569      -0.197633
      7 N2           3.5160     0.0010    -0.8630 n2         1 569      -0.530900
      8 O2           6.3470     4.6430     2.3210 os         1 569      -0.331900
      9 C3           3.6610     0.0000     0.6010 c3         1 569       0.162800
     10 F3           8.0260     4.5910     0.7380 f          1 569      -0.197633
     11 N3           1.7370    -0.0060    -2.4060 nz         1 569      -0.725600
     12 C4           2.2460    -0.0050    -1.1300 c2         1 569       0.458800
     13 F4           6.3870    -4.6130     2.3350 f          1 569      -0.114900
     14 N4           6.7060    -5.0780    -2.4420 nb         1 569      -0.726500
     15 C5           4.3800     1.2430     1.0620 ca         1 569      -0.134300
     16 N5           8.5280    -5.0390    -1.0280 nb         1 569      -0.726500
     17 C6           4.3440     1.6070     2.3950 ca         1 569      -0.070500
     18 C7           5.0010     2.7460     2.8190 ca         1 569      -0.163000
     19 C8           5.6990     3.5230     1.9070 ca         1 569       0.162100
     20 C9           5.7340     3.1550     0.5690 ca         1 569      -0.163000
     21 C10          5.0790     2.0130     0.1520 ca         1 569      -0.070500
     22 C11          7.0450     5.3960     1.3270 c3         1 569       0.796700
     23 C12          4.3930    -1.2350     1.0590 ca         1 569      -0.118300
     24 C13          4.3440    -1.6120     2.3900 ca         1 569      -0.079000
     25 C14          5.0130    -2.7440     2.8180 ca         1 569      -0.150000
     26 C15          5.7330    -3.5060     1.9170 ca         1 569       0.171900
     27 C16          5.7850    -3.1300     0.5750 cp         1 569      -0.064000
     28 C17          5.1040    -1.9910     0.1490 ca         1 569      -0.077000
     29 C18          6.5560    -3.9420    -0.3980 cp         1 569      -0.312600
     30 C19          5.9820    -4.3560    -1.6030 ca         1 569       0.478200
     31 C20          7.9490    -5.4080    -2.1540 ca         1 569       0.696900
     32 C21          7.8760    -4.3150    -0.1340 ca         1 569       0.478200
     33 H1          -0.3600    -0.8920    -0.4970 h1         1 569       0.071700
     34 H1A         -0.3610     0.0150     1.0210 h1         1 569       0.071700
     35 H1B         -0.3600     0.8770    -0.5240 h1         1 569       0.071700
     36 HN3          2.4890    -0.0040    -3.0660 hn         1 569       0.482133
     37 HN3A         1.1710     0.8080    -2.5410 hn         1 569       0.482133
     38 H6           3.7990     1.0000     3.1070 ha         1 569       0.150500
     39 H7           4.9720     3.0310     3.8640 ha         1 569       0.167000
     40 H9           6.2820     3.7580    -0.1450 ha         1 569       0.167000
     41 H10          5.1060     1.7260    -0.8930 ha         1 569       0.150500
     42 H13          3.7810    -1.0180     3.0990 ha         1 569       0.160000
     43 H14          4.9710    -3.0350     3.8610 ha         1 569       0.169000
     44 H17          5.1410    -1.6940    -0.8920 ha         1 569       0.145000
     45 H19          4.9620    -4.0880    -1.8480 h4         1 569       0.030100
     46 H20          8.5130    -6.0010    -2.8640 h5         1 569       0.073100
     47 H21          8.3580    -4.0160     0.7880 h4         1 569       0.030100
     48 H33          1.1820    -0.8280    -2.5430 hn         1 569       0.482133
@<TRIPOS>BOND
     1     3     1 1
     2     1    33 1
     3     1    34 1
     4     1    35 1
     5     2    22 1
     6    12     3 1
     7     3     5 1
     8     5     4 2
     9     9     5 1
    10    22     6 1
    11     7    12 2
    12     7     9 1
    13    19     8 1
    14     8    22 1
    15    23     9 1
    16     9    15 1
    17    10    22 1
    18    11    12 1
    19    11    36 1
    20    11    37 1
    21    13    26 1
    22    14    30 ar
    23    14    31 ar
    24    17    15 ar
    25    15    21 ar
    26    31    16 ar
    27    16    32 ar
    28    17    18 ar
    29    17    38 1
    30    18    19 ar
    31    18    39 1
    32    19    20 ar
    33    21    20 ar
    34    20    40 1
    35    21    41 1
    36    28    23 ar
    37    23    24 ar
    38    25    24 ar
    39    24    42 1
    40    26    25 ar
    41    25    43 1
    42    27    26 ar
    43    29    27 1
    44    27    28 ar
    45    28    44 1
    46    30    29 ar
    47    29    32 ar
    48    30    45 1
    49    31    46 1
    50    32    47 1
    51    48    11 1
@<TRIPOS>SUBSTRUCTURE
     1 569         1 TEMP              0 ****  ****    0 ROOT
