@<TRIPOS>MOLECULE
56D
   22    22     1     0     0
SMALL
bcc


@<TRIPOS>ATOM
      1 OAL         0.9640   -0.8910    0.5400 o         1 56D     -0.810800
      2 CAI         1.4270    0.1990    0.1160 c         1 56D      0.857600
      3 OAM         1.5120    1.2740    0.7670 o         1 56D     -0.810800
      4 CAH         1.9980    0.2120   -1.3150 c         1 56D      0.476100
      5 OAK         1.3410    0.4630   -2.3290 o         1 56D     -0.582100
      6 CAG         3.4940   -0.0810   -1.3560 c3        1 56D     -0.146400
      7 CAJ         4.2320    1.1910   -0.9740 c3        1 56D     -0.082100
      8 CAD         3.9980   -0.6230   -2.6520 ca        1 56D     -0.041300
      9 CAC         3.7370    0.0320   -3.8630 ca        1 56D     -0.120000
     10 CAB         4.2370   -0.4720   -5.0610 ca        1 56D     -0.143000
     11 CAA         5.0070   -1.6360   -5.0670 ca        1 56D     -0.153000
     12 CAF         5.2650   -2.2990   -3.8680 ca        1 56D     -0.143000
     13 CAE         4.7630   -1.7970   -2.6680 ca        1 56D     -0.120000
     14 H2          3.6710   -0.8510   -0.5480 hc        1 56D      0.076700
     15 H3          5.3070    0.9710   -0.7740 hc        1 56D      0.040367
     16 H4          3.7630    1.6250   -0.0530 hc        1 56D      0.040367
     17 H5          4.1680    1.9410   -1.7980 hc        1 56D      0.040367
     18 H6          3.1020    0.9330   -3.8560 ha        1 56D      0.142000
     19 H7          4.0190    0.0460   -6.0050 ha        1 56D      0.114000
     20 H8          5.4020   -2.0320   -6.0130 ha        1 56D      0.110000
     21 H9          5.8620   -3.2210   -3.8680 ha        1 56D      0.114000
     22 H10         4.9620   -2.3300   -1.7270 ha        1 56D      0.142000
@<TRIPOS>BOND
     1    1    2 1   
     2    2    3 1   
     3    2    4 1   
     4    4    5 2   
     5    4    6 1   
     6    6    7 1   
     7    6    8 1   
     8    6   14 1   
     9    7   15 1   
    10    7   16 1   
    11    7   17 1   
    12    8    9 ar  
    13    8   13 ar  
    14    9   10 ar  
    15    9   18 1   
    16   10   11 ar  
    17   10   19 1   
    18   11   12 ar  
    19   11   20 1   
    20   12   13 ar  
    21   12   21 1   
    22   13   22 1   
@<TRIPOS>SUBSTRUCTURE
     1 56D         1 TEMP              0 ****  ****    0 ROOT
