@<TRIPOS>MOLECULE
molecule
   28    28     1     0     0
SMALL
bcc


@<TRIPOS>ATOM
      1 C1           0.0000     0.0000     0.0000 c          1 56E       0.695700
      2 C4          -2.4360    -0.0070     0.0260 c3         1 56E       0.072000
      3 C7           3.6100     0.0000     0.8250 cc         1 56E      -0.049400
      4 C8           1.3000    -0.0000     0.6900 cd         1 56E      -0.171600
      5 C9           2.5690     0.0000     0.0000 cd         1 56E      -0.106000
      6 C11         -3.5470    -0.0130     1.0450 c          1 56E       0.625100
      7 C14         -5.8440    -0.0220     1.6790 c3         1 56E       0.146400
      8 C15         -7.2310    -0.0230     1.0330 c3         1 56E      -0.096100
      9 O11         -0.0420     0.0000    -1.2160 o          1 56E      -0.610100
     10 C12          1.4300     0.0010     2.0440 cc         1 56E      -0.087100
     11 S11          3.0730     0.0010     2.4960 ss         1 56E      -0.089800
     12 N7          -1.1420    -0.0060     0.7140 ns         1 56E      -0.582900
     13 O13         -3.2840    -0.0180     2.2250 o          1 56E      -0.560000
     14 O12         -4.8270    -0.0140     0.6420 os         1 56E      -0.423900
     15 H1          -2.5130    -0.8890    -0.5970 h1         1 56E       0.085200
     16 H2          -2.5170     0.8800    -0.5910 h1         1 56E       0.085200
     17 H3           2.6620     0.0000    -1.0790 ha         1 56E       0.173000
     18 H4           5.6940     0.0050     1.2580 hc         1 56E       0.049033
     19 H5           5.2460     0.8940    -0.2040 hc         1 56E       0.049033
     20 H6           5.2510    -0.8750    -0.2110 hc         1 56E       0.049033
     21 H7          -5.7300     0.8670     2.2880 h1         1 56E       0.050700
     22 H8          -5.7340    -0.9020     2.3000 h1         1 56E       0.050700
     23 H9          -7.3400    -0.9050     0.4140 hc         1 56E       0.049700
     24 H10         -7.9890    -0.0280     1.8060 hc         1 56E       0.049700
     25 H11         -7.3450     0.8640     0.4210 hc         1 56E       0.049700
     26 H12          0.6010     0.0010     2.7410 h4         1 56E       0.173000
     27 H13         -1.1070    -0.0350     1.7140 hn         1 56E       0.337500
     28 C10          5.0510     0.0060     0.3860 c3         1 56E      -0.014800
@<TRIPOS>BOND
     1     7     8 1   
     2     7    14 1   
     3    28     3 1   
     4     2     6 1   
     5     2    12 1   
     6    14     6 1   
     7     6    13 2   
     8    12     1 1   
     9     5     3 2   
    10     5     4 1   
    11     3    11 1   
    12     1     4 1   
    13     1     9 2   
    14     4    10 2   
    15    11    10 1   
    16     2    15 1   
    17     2    16 1   
    18     5    17 1   
    19    28    18 1   
    20    28    19 1   
    21    28    20 1   
    22     7    21 1   
    23     7    22 1   
    24     8    23 1   
    25     8    24 1   
    26     8    25 1   
    27    10    26 1   
    28    12    27 1   
@<TRIPOS>SUBSTRUCTURE
     1 56E         1 TEMP              0 ****  ****    0 ROOT
