@<TRIPOS>MOLECULE
56G
   58    61     1     0     0
SMALL
bcc


@<TRIPOS>ATOM
      1 C4           0.0000     0.0000     0.0000 ca         1 56G       0.579200
      2 C5           1.3920     0.0000     0.0000 ca         1 56G      -0.495600
      3 C6           2.0540     0.0000     1.2240 ca         1 56G       0.556200
      4 N1           1.3390    -0.0010     2.3470 nb         1 56G      -0.775000
      5 N3          -0.6470     0.0000     1.1630 nb         1 56G      -0.716000
      6 CAN         -0.3080     1.1460    -2.0340 c3         1 56G       0.140300
      7 CAL         -1.0460     1.0720    -3.3720 c3         1 56G       0.151300
      8 NBE         -2.4950     1.0770    -3.1300 n3         1 56G      -0.548600
      9 CAC         -3.2410     1.0840    -4.3950 c3         1 56G       0.189100
     10 CAM         -2.8910    -0.0630    -2.2920 c3         1 56G       0.151300
     11 CAO         -2.1520     0.0110    -0.9530 c3         1 56G       0.140300
     12 NBF         -0.7020     0.0050    -1.1950 nh         1 56G      -0.461300
     13 NAT          3.4400     0.0000     1.2730 nu         1 56G      -0.361600
     14 CBA          4.1840    -0.1300     0.0930 cc         1 56G       0.475200
     15 CAI          5.5800    -0.2470     0.0060 cc         1 56G      -0.364300
     16 CAX          5.9070    -0.3520    -1.3020 cd         1 56G      -0.220600
     17 CAB          7.3000    -0.4980    -1.8590 c3         1 56G       0.097200
     18 NAU          4.7650    -0.3050    -2.0200 na         1 56G       0.454400
     19 NAP          3.6950    -0.1710    -1.1250 nd         1 56G      -0.703800
     20 C2           0.0170    -0.0010     2.3080 ca         1 56G       0.880300
     21 OAV         -0.6770    -0.0000     3.4720 os         1 56G      -0.319400
     22 CAZ          0.0230     0.1080     4.6310 ca         1 56G       0.144100
     23 CAH          0.7080     1.2770     4.9220 ca         1 56G      -0.113000
     24 CAG          0.0490    -0.9510     5.5290 ca         1 56G      -0.123000
     25 CAE          0.7590    -0.8430     6.7090 ca         1 56G      -0.071000
     26 CAF          1.4470     0.3190     7.0000 ca         1 56G      -0.144000
     27 CAY          1.4170     1.3860     6.1100 ca         1 56G      -0.075400
     28 NAS          2.1130     2.5630     6.4050 ns         1 56G      -0.030100
     29 CAW          1.6140     3.7550     6.0220 c          1 56G       0.567300
     30 OAD          0.5100     3.8170     5.5150 o          1 56G      -0.634100
     31 CAK          2.4040     4.9800     6.2180 ce         1 56G      -0.249200
     32 CAA          1.9110     6.1560     5.8400 c2         1 56G      -0.051000
     33 H1           1.9470     0.0000    -0.9310 ha         1 56G       0.207000
     34 H2          -0.5660     2.0700    -1.5300 h1         1 56G       0.032700
     35 H3           0.7610     1.1110    -2.2100 h1         1 56G       0.032700
     36 H4          -0.7790     1.9290    -3.9780 h1         1 56G       0.013700
     37 H5          -0.7700     0.1590    -3.8850 h1         1 56G       0.013700
     38 H7          -2.9550     1.9510    -4.9780 h1         1 56G      -0.000300
     39 H8          -4.3030     1.1220    -4.1880 h1         1 56G      -0.000300
     40 H9          -3.0140     0.1830    -4.9530 h1         1 56G      -0.000300
     41 H10         -3.9590    -0.0280    -2.1160 h1         1 56G       0.013700
     42 H11         -2.6320    -0.9870    -2.7950 h1         1 56G       0.013700
     43 H12         -2.4280     0.9240    -0.4400 h1         1 56G       0.032700
     44 H13         -2.4190    -0.8460    -0.3460 h1         1 56G       0.032700
     45 H14          3.9090     0.0930     2.1520 hn         1 56G       0.291800
     46 H15          6.2670    -0.3140     0.8410 ha         1 56G       0.141000
     47 H16          7.9900     0.0850    -1.2620 hc         1 56G       0.012033
     48 H17          7.5910    -1.5410    -1.8330 hc         1 56G       0.012033
     49 H18          7.3180    -0.1440    -2.8820 hc         1 56G       0.012033
     50 H19          4.6940    -0.3620    -3.0160 hn         1 56G       0.147700
     51 H20          0.6820     2.1070     4.2260 ha         1 56G       0.148000
     52 H21         -0.4900    -1.8640     5.3040 ha         1 56G       0.115000
     53 H22          0.7800    -1.6720     7.4050 ha         1 56G       0.103000
     54 H23          2.0020     0.4030     7.9260 ha         1 56G       0.104000
     55 H24          2.9930     2.5180     6.8800 hn         1 56G       0.165500
     56 H25          3.3870     4.9240     6.6690 ha         1 56G       0.103000
     57 H27          0.9280     6.2120     5.3880 ha         1 56G       0.092500
     58 H28          2.4940     7.0580     5.9840 ha         1 56G       0.092500
@<TRIPOS>BOND
     1     1     2 ar  
     2     1     5 ar  
     3     1    12 1   
     4     2     3 ar  
     5     2    33 1   
     6     3     4 ar  
     7     3    13 1   
     8     4    20 ar  
     9     5    20 ar  
    10     6     7 1   
    11     6    12 1   
    12     6    34 1   
    13     6    35 1   
    14     7     8 1   
    15     7    36 1   
    16     7    37 1   
    17     8     9 1   
    18     8    10 1   
    19     9    38 1   
    20     9    39 1   
    21     9    40 1   
    22    10    11 1   
    23    10    41 1   
    24    10    42 1   
    25    11    12 1   
    26    11    43 1   
    27    11    44 1   
    28    13    14 1   
    29    13    45 1   
    30    14    15 1   
    31    14    19 2   
    32    15    16 2   
    33    15    46 1   
    34    16    17 1   
    35    16    18 1   
    36    17    47 1   
    37    17    48 1   
    38    17    49 1   
    39    18    19 1   
    40    18    50 1   
    41    20    21 1   
    42    21    22 1   
    43    22    23 ar  
    44    22    24 ar  
    45    23    27 ar  
    46    23    51 1   
    47    24    25 ar  
    48    24    52 1   
    49    25    26 ar  
    50    25    53 1   
    51    26    27 ar  
    52    26    54 1   
    53    27    28 1   
    54    28    29 1   
    55    28    55 1   
    56    29    30 2   
    57    29    31 1   
    58    31    32 2   
    59    31    56 1   
    60    32    57 1   
    61    32    58 1   
@<TRIPOS>SUBSTRUCTURE
     1 56G         1 TEMP              0 ****  ****    0 ROOT
