@<TRIPOS>MOLECULE
molecule
   58    61     1     0     0
SMALL
bcc


@<TRIPOS>ATOM
      1 C4           0.0000     0.0000     0.0000 ca         1 56G       0.699200
      2 C5           1.3920     0.0000     0.0000 ca         1 56G      -0.478600
      3 C6           2.0540     0.0000     1.2240 ca         1 56G       0.753200
      4 N1           1.3390    -0.0010     2.3470 nb         1 56G      -0.878000
      5 N3          -0.6470     0.0000     1.1630 nb         1 56G      -0.822000
      6 CAN         -0.3080     1.1460    -2.0340 c3         1 56G       0.171300
      7 CAL         -1.0460     1.0720    -3.3720 c3         1 56G       0.158800
      8 NBE         -2.4950     1.0770    -3.1300 n3         1 56G      -0.734600
      9 CAC         -3.2410     1.0840    -4.3950 c3         1 56G       0.153100
     10 CAM         -2.8910    -0.0630    -2.2920 c3         1 56G       0.158800
     11 CAO         -2.1520     0.0110    -0.9530 c3         1 56G       0.171300
     12 NBF         -0.7020     0.0050    -1.1950 nh         1 56G      -0.694300
     13 NAT          3.4400     0.0000     1.2730 nu         1 56G      -0.844600
     14 CBA          4.1840    -0.1300     0.0930 cc         1 56G       0.607200
     15 CAI          5.5800    -0.2470     0.0060 cc         1 56G      -0.377300
     16 CAX          5.9070    -0.3520    -1.3020 cd         1 56G      -0.042600
     17 CAB          7.3000    -0.4980    -1.8590 c3         1 56G      -0.032800
     18 NAU          4.7650    -0.3050    -2.0200 na         1 56G      -0.042600
     19 NAP          3.6950    -0.1710    -1.1250 nd         1 56G      -0.561800
     20 C2           0.0170    -0.0010     2.3080 ca         1 56G       0.957300
     21 OAV         -0.6770    -0.0000     3.4720 os         1 56G      -0.327400
     22 CAZ          0.0230     0.1080     4.6310 ca         1 56G       0.136100
     23 CAH          0.7080     1.2770     4.9220 ca         1 56G      -0.125000
     24 CAG          0.0490    -0.9510     5.5290 ca         1 56G      -0.141000
     25 CAE          0.7590    -0.8430     6.7090 ca         1 56G      -0.104000
     26 CAF          1.4470     0.3190     7.0000 ca         1 56G      -0.165000
     27 CAY          1.4170     1.3860     6.1100 ca         1 56G       0.065600
     28 NAS          2.1130     2.5630     6.4050 ns         1 56G      -0.475100
     29 CAW          1.6140     3.7550     6.0220 c          1 56G       0.661300
     30 OAD          0.5100     3.8170     5.5150 o          1 56G      -0.593100
     31 CAK          2.4040     4.9800     6.2180 ce         1 56G      -0.255200
     32 CAA          1.9110     6.1560     5.8400 c2         1 56G      -0.124000
     33 H1           1.9470     0.0000    -0.9310 ha         1 56G       0.205000
     34 H2           0.7610     1.1110    -2.2100 h1         1 56G       0.061450
     35 H3          -0.5660     2.0700    -1.5300 h1         1 56G       0.061450
     36 H4          -0.7790     1.9290    -3.9780 h1         1 56G       0.042200
     37 H5          -0.7700     0.1590    -3.8850 h1         1 56G       0.042200
     38 H7          -2.9570     1.9520    -4.9770 h1         1 56G       0.031700
     39 H8          -3.0120     0.1840    -4.9540 h1         1 56G       0.031700
     40 H9          -4.3030     1.1190    -4.1880 h1         1 56G       0.031700
     41 H10         -2.6320    -0.9870    -2.7950 h1         1 56G       0.042200
     42 H11         -3.9590    -0.0280    -2.1160 h1         1 56G       0.042200
     43 H12         -2.4280     0.9240    -0.4400 h1         1 56G       0.061450
     44 H13         -2.4190    -0.8460    -0.3460 h1         1 56G       0.061450
     45 H14          3.9090     0.0930     2.1520 hn         1 56G       0.470800
     46 H15          6.2670    -0.3140     0.8410 ha         1 56G       0.157000
     47 H16          7.6000    -1.5380    -1.8130 hc         1 56G       0.054367
     48 H17          7.3130    -0.1640    -2.8890 hc         1 56G       0.054367
     49 H18          7.9870     0.1020    -1.2750 hc         1 56G       0.054367
     50 H19          4.6940    -0.3620    -3.0160 hn         1 56G       0.330700
     51 H20          0.6820     2.1070     4.2260 ha         1 56G       0.170000
     52 H21         -0.4900    -1.8640     5.3040 ha         1 56G       0.144000
     53 H22          0.7800    -1.6720     7.4050 ha         1 56G       0.135000
     54 H23          2.0020     0.4030     7.9260 ha         1 56G       0.129000
     55 H24          2.9930     2.5180     6.8800 hn         1 56G       0.324500
     56 H25          3.3870     4.9240     6.6690 ha         1 56G       0.125000
     57 H27          2.4940     7.0580     5.9840 ha         1 56G       0.131500
     58 H28          0.9280     6.2120     5.3880 ha         1 56G       0.131500
@<TRIPOS>BOND
     1    32    31 2   
     2    31    29 1   
     3    29    28 1   
     4    29    30 2   
     5     9     8 1   
     6    28    27 1   
     7    10     8 1   
     8    10    11 1   
     9     8     7 1   
    10    27    26 ar  
    11    27    23 ar  
    12     7     6 1   
    13    26    25 ar  
    14    11    12 1   
    15    23    22 ar  
    16    12     6 1   
    17    12     1 1   
    18    25    24 ar  
    19     1     5 ar  
    20     1     2 ar  
    21     5    20 ar  
    22    22    24 ar  
    23    22    21 1   
    24     2     3 ar  
    25    20    21 1   
    26    20     4 ar  
    27     3     4 ar  
    28     3    13 1   
    29    13    14 1   
    30    14    15 1   
    31    14    19 2   
    32    15    16 2   
    33    19    18 1   
    34    16    18 1   
    35    16    17 1   
    36     2    33 1   
    37     6    34 1   
    38     6    35 1   
    39     7    36 1   
    40     7    37 1   
    41     9    38 1   
    42     9    39 1   
    43     9    40 1   
    44    10    41 1   
    45    10    42 1   
    46    11    43 1   
    47    11    44 1   
    48    13    45 1   
    49    15    46 1   
    50    17    47 1   
    51    17    48 1   
    52    17    49 1   
    53    18    50 1   
    54    23    51 1   
    55    24    52 1   
    56    25    53 1   
    57    26    54 1   
    58    28    55 1   
    59    31    56 1   
    60    32    57 1   
    61    32    58 1   
@<TRIPOS>SUBSTRUCTURE
     1 56G         1 TEMP              0 ****  ****    0 ROOT
