@<TRIPOS>MOLECULE
56H
   49    51     1     0     0
SMALL
bcc


@<TRIPOS>ATOM
      1 C18        -1.6370    0.1800   -1.1820 c         1 56H      0.659100
      2 C15        -2.5990    1.7600   -2.7970 cc        1 56H      0.481300
      3 C19        -0.3790   -0.5880   -0.7980 c3        1 56H     -0.125700
      4 C21        -0.7080   -1.6010    0.2880 c3        1 56H     -0.073900
      5 C22         0.7040    0.3660   -0.3150 c3        1 56H     -0.073900
      6 C23         0.5560   -2.3290    0.7410 c3        1 56H      0.164300
      7 C24         1.9320   -0.4160    0.1520 c3        1 56H      0.164300
      8 C11        -8.5760   -2.9630   -4.0350 c3        1 56H     -0.089100
      9 C12        -7.6480   -2.0800   -6.1710 c3        1 56H     -0.089100
     10 C1         -7.7560    1.6260   -4.1580 cc        1 56H      0.479700
     11 O2         -7.1760    0.4600   -4.7050 os        1 56H     -0.379800
     12 N3         -8.8290    1.3480   -3.4130 nd        1 56H     -0.651000
     13 C4         -7.1050    2.8990   -4.5060 c3        1 56H     -0.077600
     14 C5         -7.9690   -0.5950   -4.2370 cc        1 56H      0.170700
     15 C6         -8.9750   -0.0430   -3.4510 cd        1 56H      0.225900
     16 C8         -7.5960   -1.9710   -4.6500 c3        1 56H     -0.075300
     17 C9         -4.6870    2.9210   -3.2450 cc        1 56H     -0.272500
     18 C10        -6.1840   -2.2840   -4.1670 c3        1 56H     -0.089100
     19 S13        -4.1490    1.8500   -2.0740 ss        1 56H      0.095700
     20 C14        -3.6540    3.1680   -4.1590 cd        1 56H      0.419200
     21 N16        -2.4740    2.5220   -3.9310 nd        1 56H     -0.707000
     22 N17        -1.5410    1.0040   -2.3020 n         1 56H     -0.528400
     23 O20        -2.7070    0.0910   -0.5540 o         1 56H     -0.576100
     24 N25         1.6190   -1.4290    1.1400 n3        1 56H     -0.821200
     25 H1         -0.0050   -1.1410   -1.7070 hc        1 56H      0.068700
     26 H2         -1.4430   -2.3510   -0.1000 hc        1 56H      0.063200
     27 H3         -1.1860   -1.0750    1.1560 hc        1 56H      0.063200
     28 H4          0.3060    0.9880    0.5290 hc        1 56H      0.063200
     29 H5          1.0190    1.0570   -1.1370 hc        1 56H      0.063200
     30 H6          0.3040   -2.9660    1.6360 h1        1 56H      0.031700
     31 H7          0.8800   -3.0240   -0.0910 h1        1 56H      0.031700
     32 H8          2.4350   -0.8540   -0.7610 h1        1 56H      0.031700
     33 H9          2.6580    0.3030    0.6280 h1        1 56H      0.031700
     34 H10        -9.6160   -2.7500   -4.3800 hc        1 56H      0.043144
     35 H11        -8.5470   -2.8990   -2.9210 hc        1 56H      0.043144
     36 H12        -8.3000   -4.0000   -4.3430 hc        1 56H      0.043144
     37 H13        -6.9560   -1.3350   -6.6310 hc        1 56H      0.043144
     38 H14        -8.6830   -1.8840   -6.5400 hc        1 56H      0.043144
     39 H15        -7.3410   -3.1050   -6.4870 hc        1 56H      0.043144
     40 H16        -7.8940    3.6630   -4.7420 h1        1 56H      0.103200
     41 H17        -6.4670    2.7490   -5.4130 h1        1 56H      0.103200
     42 H18        -9.7830   -0.5400   -2.9150 h4        1 56H      0.052100
     43 H19        -5.8910   -3.3090   -4.4960 hc        1 56H      0.043144
     44 H20        -6.1330   -2.2330   -3.0540 hc        1 56H      0.043144
     45 H21        -5.4620   -1.5450   -4.5930 hc        1 56H      0.043144
     46 H22        -3.7260    3.8330   -5.0300 h4        1 56H      0.046100
     47 H23        -0.6700    1.0610   -2.7840 hn        1 56H      0.338500
     48 H24         2.4440   -1.9500    1.3720 hn        1 56H      0.368800
     49 S7         -6.1810    3.6260   -3.1860 ss        1 56H     -0.081000
@<TRIPOS>BOND
     1    1    3 1
     2    1   22 1
     3    1   23 2
     4    2   19 1
     5    2   21 2
     6    2   22 1
     7    3    4 1
     8    3    5 1
     9    3   25 1
    10    4    6 1
    11    4   26 1
    12    4   27 1
    13    5    7 1
    14    5   28 1
    15    5   29 1
    16    6   24 1
    17    6   30 1
    18    6   31 1
    19    7   24 1
    20    7   32 1
    21    7   33 1
    22    8   16 1
    23    8   34 1
    24    8   35 1
    25    8   36 1
    26    9   16 1
    27    9   37 1
    28    9   38 1
    29    9   39 1
    30   10   11 1
    31   10   12 2
    32   10   13 1
    33   11   14 1
    34   12   15 1
    35   13   40 1
    36   13   41 1
    37   13   49 1
    38   14   15 2
    39   14   16 1
    40   15   42 1
    41   16   18 1
    42   17   19 1
    43   17   20 2
    44   17   49 1
    45   18   43 1
    46   18   44 1
    47   18   45 1
    48   20   21 1
    49   20   46 1
    50   22   47 1
    51   24   48 1
@<TRIPOS>SUBSTRUCTURE
     1 56H         1 TEMP              0 ****  ****    0 ROOT
