@<TRIPOS>MOLECULE
molecule
   31    33     1     0     0
SMALL
bcc


@<TRIPOS>ATOM
      1 C01          0.0000     0.0000     0.0000 ca         1 56J      -0.122000
      2 C02          1.3840     0.0000     0.0000 ca         1 56J      -0.128000
      3 C03          2.0790     0.0000     1.1900 ca         1 56J      -0.103500
      4 C04          1.3870     0.0010     2.4030 cp         1 56J      -0.039500
      5 C05         -0.0060     0.0010     2.3930 ca         1 56J      -0.085300
      6 C06         -0.6930     0.0010     1.1970 ca         1 56J      -0.113500
      7 C07         -0.4700     0.0020     3.8290 c3         1 56J       0.025900
      8 C08          0.7800     0.0010     4.6720 ca         1 56J      -0.085300
      9 C09          0.9780     0.0020     6.0360 ca         1 56J      -0.113500
     10 C10          2.2620     0.0030     6.5520 ca         1 56J      -0.122000
     11 C11          3.3510     0.0030     5.6980 ca         1 56J      -0.128000
     12 C12          3.1630     0.0020     4.3320 ca         1 56J      -0.103500
     13 C13          1.8700     0.0010     3.8050 cp         1 56J      -0.039500
     14 C14         -1.2980     1.2570     4.1140 c3         1 56J      -0.057400
     15 C16         -2.6790     2.4180     5.8150 c          1 56J       0.568900
     16 O17         -3.8260     2.3160     6.1780 o          1 56J      -0.522100
     17 C29         -1.8650     1.1820     5.5340 c3         1 56J      -0.215400
     18 H011        -0.5410    -0.0000    -0.9380 ha         1 56J       0.133000
     19 H021         1.9240    -0.0010    -0.9390 ha         1 56J       0.132000
     20 H031         3.1620    -0.0000     1.1850 ha         1 56J       0.131500
     21 H061        -1.7760     0.0010     1.1950 ha         1 56J       0.131500
     22 H071        -1.0530    -0.8890     4.0310 hc         1 56J       0.078700
     23 H091         0.1260     0.0020     6.7060 ha         1 56J       0.131500
     24 H101         2.4150     0.0040     7.6240 ha         1 56J       0.133000
     25 H111         4.3550     0.0040     6.1040 ha         1 56J       0.132000
     26 H121         4.0190     0.0020     3.6680 ha         1 56J       0.131500
     27 H142        -2.1120     1.3210     3.4030 hc         1 56J       0.053700
     28 H143        -0.6680     2.1330     4.0230 hc         1 56J       0.053700
     29 H1          -2.2090     3.3930     5.7750 h4         1 56J      -0.004800
     30 H292        -2.4950     0.3050     5.6250 hc         1 56J       0.072700
     31 H33         -1.0500     1.1170     6.2450 hc         1 56J       0.072700
@<TRIPOS>BOND
     1     2     3 ar
     2     2     1 ar
     3     3     4 ar
     4    12    11 ar
     5    12    13 ar
     6     1     6 ar
     7     4    13 1
     8     4     5 ar
     9    11    10 ar
    10    13     8 ar
    11     6     5 ar
    12     5     7 1
    13    10     9 ar
    14     8     7 1
    15     8     9 ar
    16     7    14 1
    17    14    17 1
    18    17    15 1
    19    16    15 2
    20     1    18 1
    21     2    19 1
    22     3    20 1
    23     6    21 1
    24     7    22 1
    25     9    23 1
    26    10    24 1
    27    11    25 1
    28    12    26 1
    29    14    27 1
    30    14    28 1
    31    15    29 1
    32    17    30 1
    33    17    31 1
@<TRIPOS>SUBSTRUCTURE
     1 56J         1 TEMP              0 ****  ****    0 ROOT
