@<TRIPOS>MOLECULE
56K
   23    24     1     0     0
SMALL
bcc


@<TRIPOS>ATOM
      1 C1           0.0000     0.0000     0.0000 ca         1 56K      -0.100000
      2 C2           1.3810     0.0000     0.0000 ca         1 56K      -0.098000
      3 C3           2.0790     0.0000     1.2060 ca         1 56K      -0.126500
      4 C4           1.3800    -0.0010     2.4110 ca         1 56K      -0.083000
      5 C5          -0.0070    -0.0000     2.4030 ca         1 56K       0.025600
      6 C6          -0.6950    -0.0000     1.1950 ca         1 56K      -0.107000
      7 C8           3.5620    -0.0010     1.2070 cc         1 56K       0.397800
      8 N7          -0.7120    -0.0020     3.6080 nv         1 56K      -0.560200
      9 C12          4.2970     0.0980     0.0800 cd         1 56K      -0.122400
     10 S11          5.9980     0.0570     0.5380 ss         1 56K      -0.311300
     11 C10          5.5640    -0.0870     2.1860 cd         1 56K       0.436700
     12 N9           4.2830    -0.0930     2.3160 nc         1 56K      -0.558000
     13 C13          6.5440    -0.1880     3.3260 c3         1 56K      -0.000400
     14 H1          -0.5400    -0.0000    -0.9390 ha         1 56K       0.102000
     15 H2           1.9220     0.0000    -0.9390 ha         1 56K       0.105000
     16 H3           1.9180    -0.0010     3.3510 ha         1 56K       0.127000
     17 H4          -1.7780    -0.0000     1.1900 ha         1 56K       0.107000
     18 H5          -0.9600    -0.8700     4.0420 hn         1 56K       0.272800
     19 H6          -0.9610     0.8640     4.0440 hn         1 56K       0.272800
     20 H7           3.9090     0.1860    -0.9270 h4         1 56K       0.165000
     21 H8           6.4630     0.6930     3.9510 hc         1 56K       0.018033
     22 H9           6.3240    -1.0700     3.9150 hc         1 56K       0.018033
     23 H10          7.5500    -0.2590     2.9310 hc         1 56K       0.018033
@<TRIPOS>BOND
     1     1     2 ar  
     2     1     6 ar  
     3     1    14 1   
     4     2     3 ar  
     5     2    15 1   
     6     3     4 ar  
     7     3     7 1   
     8     4     5 ar  
     9     4    16 1   
    10     5     6 ar  
    11     5     8 1   
    12     6    17 1   
    13     7     9 2   
    14     7    12 1   
    15     8    18 1   
    16     8    19 1   
    17     9    10 1   
    18     9    20 1   
    19    10    11 1   
    20    11    12 2   
    21    11    13 1   
    22    13    21 1   
    23    13    22 1   
    24    13    23 1   
@<TRIPOS>SUBSTRUCTURE
     1 56K         1 TEMP              0 ****  ****    0 ROOT
