@<TRIPOS>MOLECULE
56L
   22    22     1     0     0
SMALL
bcc


@<TRIPOS>ATOM
      1 C10          0.0000     0.0000     0.0000 c3         1 56L      -0.008600
      2 C9           1.5310     0.0000     0.0000 c3         1 56L      -0.032700
      3 C5           3.9190    -1.7300     2.5070 cs         1 56L       0.267400
      4 C3           1.6450    -1.3180     2.0830 c          1 56L       0.596000
      5 C2           2.0410     0.0000     1.4420 c3         1 56L      -0.217700
      6 C1           3.5240     0.3170     1.4230 c          1 56L       0.596000
      7 C11          2.0400    -1.2490    -0.7210 c3         1 56L      -0.008600
      8 O12          0.4840    -1.6620     2.1470 o          1 56L      -0.589000
      9 N4           2.6330    -2.0940     2.5750 ns         1 56L      -0.040500
     10 N6           4.3630    -0.5920     1.9630 ns         1 56L      -0.040500
     11 O8           3.9410     1.3470     0.9370 o          1 56L      -0.589000
     12 H1          -0.3610     0.5700     0.8480 hc         1 56L       0.014033
     13 H2          -0.3610    -1.0190     0.0700 hc         1 56L       0.014033
     14 H3          -0.3610     0.4490    -0.9170 hc         1 56L       0.014033
     15 H4           1.8920     0.8840    -0.5110 hc         1 56L       0.054700
     16 H5           1.5390     0.7950     1.9810 hc         1 56L       0.087700
     17 H6           1.6270    -2.1320    -0.2480 hc         1 56L       0.014033
     18 H7           1.7320    -1.2180    -1.7590 hc         1 56L       0.014033
     19 H8           3.1220    -1.2830    -0.6660 hc         1 56L       0.014033
     20 H9           2.3980    -2.9680     3.0020 hn         1 56L       0.223500
     21 H10          5.3470    -0.4100     1.9550 hn         1 56L       0.223500
     22 S7           5.0820    -2.8040     3.1600 s          1 56L      -0.605400
@<TRIPOS>BOND
     1     1     2 1   
     2     1    12 1   
     3     1    13 1   
     4     1    14 1   
     5     2     5 1   
     6     2     7 1   
     7     2    15 1   
     8     3     9 1   
     9     3    10 1   
    10     3    22 2   
    11     4     5 1   
    12     4     8 2   
    13     4     9 1   
    14     5     6 1   
    15     5    16 1   
    16     6    10 1   
    17     6    11 2   
    18     7    17 1   
    19     7    18 1   
    20     7    19 1   
    21     9    20 1   
    22    10    21 1   
@<TRIPOS>SUBSTRUCTURE
     1 56L         1 TEMP              0 ****  ****    0 ROOT
