@<TRIPOS>MOLECULE
molecule
   53    54     1     0     0
SMALL
bcc


@<TRIPOS>ATOM
      1 C11          0.0000     0.0000     0.0000 ca         1 56M       0.020600
      2 C12          1.3870     0.0000     0.0000 ca         1 56M      -0.014000
      3 C13          2.0780     0.0000     1.1970 ca         1 56M      -0.324500
      4 C14          1.3900     0.0010     2.3960 ca         1 56M      -0.017000
      5 C15          0.0080     0.0010     2.4040 ca         1 56M      -0.213000
      6 C16         -0.6930     0.0010     1.2090 ca         1 56M       0.138100
      7 C4          -1.3130    -0.4930    -5.7920 cc         1 56M      -0.263600
      8 C3          -0.3380    -0.8100    -4.8180 cc         1 56M      -0.019300
      9 C7          -0.8110    -0.3630    -3.6200 cd         1 56M      -0.216900
     10 C5          -2.3500     0.1480    -5.1330 cd         1 56M      -0.048600
     11 C8          -0.1240    -0.4800    -2.3280 c          1 56M       0.703700
     12 C26         -3.6120     0.6700    -5.7710 c3         1 56M      -0.030800
     13 C29         -0.5240     0.1700    -8.1520 c3         1 56M      -0.189100
     14 C23          6.0310     2.2020     2.8380 c3         1 56M      -0.108100
     15 C25          6.0270     2.2000    -0.4560 c3         1 56M      -0.108100
     16 C2           0.9750    -1.5100    -5.0580 c3         1 56M      -0.023800
     17 N6          -2.0430     0.2170    -3.8290 na         1 56M      -0.139100
     18 N10         -0.7020     0.0060    -1.2120 ns         1 56M      -0.471100
     19 N21          4.3320     1.5800     1.1940 n3         1 56M      -0.820500
     20 O28         -1.7530    -1.7870    -7.6720 o          1 56M      -0.519100
     21 O9           0.9680    -1.0140    -2.2650 o          1 56M      -0.581100
     22 O19          4.2430    -0.5460     2.4440 o          1 56M      -0.630800
     23 O20          4.2400    -0.5460    -0.0550 o          1 56M      -0.630800
     24 O17         -2.0520     0.0020     1.2150 oh         1 56M      -0.515100
     25 S18          3.8400    -0.0020     1.1950 sy         1 56M       1.425200
     26 H1           1.9290    -0.0010    -0.9380 ha         1 56M       0.196000
     27 H2           1.9360     0.0010     3.3310 ha         1 56M       0.152000
     28 H3          -0.5270     0.0020     3.3460 ha         1 56M       0.140000
     29 H4          -4.0680    -0.1140    -6.3630 hc         1 56M       0.055033
     30 H5          -3.3730     1.5120    -6.4100 hc         1 56M       0.055033
     31 H6          -4.3020     0.9870    -4.9990 hc         1 56M       0.055033
     32 H7          -1.2000     0.4890    -8.9360 hc         1 56M       0.061033
     33 H8          -0.1860     1.0350    -7.5930 hc         1 56M       0.061033
     34 H9           0.3290    -0.3310    -8.5920 hc         1 56M       0.061033
     35 H10          6.1300     2.1990     3.9170 hc         1 56M       0.042367
     36 H11          6.5390     3.0670     2.4320 hc         1 56M       0.042367
     37 H12          6.4740     1.3000     2.4330 hc         1 56M       0.042367
     38 H13          6.1230     2.2000    -1.5350 hc         1 56M       0.042367
     39 H14          6.5590     3.0500    -0.0460 hc         1 56M       0.042367
     40 H15          6.4470     1.2840    -0.0560 hc         1 56M       0.042367
     41 H16          1.0670    -2.3480    -4.3780 hc         1 56M       0.054700
     42 H17          1.7900    -0.8170    -4.8890 hc         1 56M       0.054700
     43 H18          1.0120    -1.8680    -6.0800 hc         1 56M       0.054700
     44 H19          3.9550     1.8150     3.2380 h1         1 56M       0.049700
     45 H20          4.2590     3.3180     2.3560 h1         1 56M       0.049700
     46 H21          4.2570     3.3170     0.0290 h1         1 56M       0.049700
     47 H22          3.9500     1.8130    -0.8510 h1         1 56M       0.049700
     48 H23         -2.6170     0.6300    -3.1200 hn         1 56M       0.295700
     49 H24         -1.6250     0.3910    -1.2540 hn         1 56M       0.325500
     50 H25         -2.3630    -0.4620     1.9750 ho         1 56M       0.434000
     51 C27         -1.2390    -0.7820    -7.2280 c          1 56M       0.610700
     52 C22          4.5500     2.2800     2.4620 c3         1 56M       0.238300
     53 C24          4.5470     2.2790    -0.0760 c3         1 56M       0.238300
@<TRIPOS>BOND
     1    12    10 1
     2    14    52 1
     3    22    25 2
     4    10    17 1
     5    10     7 2
     6    17     9 1
     7    52    19 1
     8    21    11 2
     9    20    51 2
    10     7    51 1
    11     7     8 1
    12     9    11 1
    13     9     8 2
    14    51    13 1
    15    19    25 1
    16    19    53 1
    17    25    23 2
    18    25     3 1
    19    11    18 1
    20     8    16 1
    21     2     3 ar
    22     2     1 ar
    23    53    15 1
    24     3     4 ar
    25    18     1 1
    26     1     6 ar
    27     4     5 ar
    28     6     5 ar
    29     6    24 1
    30     2    26 1
    31     4    27 1
    32     5    28 1
    33    12    29 1
    34    12    30 1
    35    12    31 1
    36    13    32 1
    37    13    33 1
    38    13    34 1
    39    14    35 1
    40    14    36 1
    41    14    37 1
    42    15    38 1
    43    15    39 1
    44    15    40 1
    45    16    41 1
    46    16    42 1
    47    16    43 1
    48    52    44 1
    49    52    45 1
    50    53    46 1
    51    53    47 1
    52    17    48 1
    53    18    49 1
    54    24    50 1
@<TRIPOS>SUBSTRUCTURE
     1 56M         1 TEMP              0 ****  ****    0 ROOT
