@<TRIPOS>MOLECULE
molecule
   34    35     1     0     0
SMALL
bcc


@<TRIPOS>ATOM
      1 O2           0.0000     0.0000     0.0000 oh         1 56N      -0.597800
      2 O3           1.5300    -1.2020     2.0970 oh         1 56N      -0.590800
      3 O4           4.0040    -1.0830     0.7930 oh         1 56N      -0.578800
      4 O5           3.3690     1.2810    -0.6620 os         1 56N      -0.412600
      5 C1           1.9410     1.2540    -0.7150 c3         1 56N       0.340900
      6 C2           1.4290     0.0000     0.0000 c3         1 56N       0.125100
      7 C3           1.9420     0.0000     1.4430 c3         1 56N       0.125100
      8 C4           3.4710     0.0790     1.4310 c3         1 56N       0.099100
      9 C5           3.9040     1.3290     0.6620 c3         1 56N       0.157100
     10 C6           5.4310     1.3840     0.5930 c3         1 56N       0.150400
     11 O6           5.8370     2.6070    -0.0230 oh         1 56N      -0.600800
     12 O1'          1.5140     1.2320    -2.0780 os         1 56N      -0.305900
     13 C1'          1.7960     2.3280    -2.8300 ca         1 56N       0.141100
     14 C2'          1.4100     2.3760    -4.1620 ca         1 56N      -0.175000
     15 C3'          1.6990     3.4920    -4.9240 ca         1 56N      -0.096000
     16 C4'          2.3710     4.5600    -4.3600 ca         1 56N      -0.165000
     17 C5'          2.7560     4.5160    -3.0340 ca         1 56N      -0.096000
     18 C6'          2.4650     3.4050    -2.2660 ca         1 56N      -0.175000
     19 H1          -0.3140    -0.7710    -0.4430 ho         1 56N       0.418000
     20 H2           1.1060    -0.9880     2.9110 ho         1 56N       0.407000
     21 H3           4.4000    -1.6430     1.4400 ho         1 56N       0.407000
     22 H4           1.5470     2.1340    -0.2220 h2         1 56N       0.043700
     23 H5           1.7960    -0.8810    -0.5120 h1         1 56N       0.087700
     24 H6           1.5410     0.8590     1.9680 h1         1 56N       0.047700
     25 H7           3.8370     0.1390     2.4490 h1         1 56N       0.041700
     26 H8           3.5290     2.2100     1.1680 h1         1 56N       0.049700
     27 H9           5.8400     1.3320     1.5950 h1         1 56N       0.038700
     28 H10          5.7970     0.5470     0.0100 h1         1 56N       0.038700
     29 H11          6.7740     2.6970     0.0430 ho         1 56N       0.405000
     30 H12          0.8840     1.5390    -4.6040 ha         1 56N       0.142500
     31 H13          1.3980     3.5300    -5.9640 ha         1 56N       0.130500
     32 H14          2.5980     5.4330    -4.9600 ha         1 56N       0.127000
     33 H15          3.2800     5.3560    -2.5940 ha         1 56N       0.130500
     34 H16          2.7670     3.3710    -1.2260 ha         1 56N       0.142500
@<TRIPOS>BOND
     1    16    17 ar
     2    16    15 ar
     3    17    18 ar
     4    15    14 ar
     5    18    13 ar
     6    14    13 ar
     7    13    12 1
     8    12     5 1
     9     1     6 1
    10     5     6 1
    11     5     4 1
    12     6     7 1
    13     4     9 1
    14     7     2 1
    15     7     8 1
    16     9     8 1
    17     9    10 1
    18     8     3 1
    19    11    10 1
    20     1    19 1
    21     2    20 1
    22     3    21 1
    23     5    22 1
    24     6    23 1
    25     7    24 1
    26     8    25 1
    27     9    26 1
    28    10    27 1
    29    10    28 1
    30    11    29 1
    31    14    30 1
    32    15    31 1
    33    16    32 1
    34    17    33 1
    35    18    34 1
@<TRIPOS>SUBSTRUCTURE
     1 56N         1 TEMP              0 ****  ****    0 ROOT
