@<TRIPOS>MOLECULE
56N
   34    35     1     0     0
SMALL
bcc


@<TRIPOS>ATOM
      1 O2          0.1850   -0.0170   -0.0790 oh        1 56N     -0.604800
      2 O3          1.6090   -1.2760    2.0580 oh        1 56N     -0.605800
      3 O4          4.1720   -1.0430    1.1280 oh        1 56N     -0.589800
      4 O5          3.5700    1.3650   -0.4820 os        1 56N     -0.431600
      5 C1          2.1590    1.2980   -0.6300 c3        1 56N      0.309900
      6 C2          1.5980    0.0030   -0.0090 c3        1 56N      0.084100
      7 C3          1.9720   -0.0350    1.4800 c3        1 56N      0.112100
      8 C4          3.4980    0.0930    1.6370 c3        1 56N      0.124100
      9 C5          3.9960    1.3340    0.8820 c3        1 56N      0.108100
     10 C6          5.5280    1.3750    0.8220 c3        1 56N      0.143400
     11 O6          5.9690    2.5570    0.1910 oh        1 56N     -0.600800
     12 O1'         1.9970    1.1690   -2.0320 os        1 56N     -0.329900
     13 C1'         2.0570    2.3440   -2.7710 ca        1 56N      0.114100
     14 C2'         1.3470    2.3210   -3.9840 ca        1 56N     -0.163500
     15 C3'         1.3940    3.4390   -4.8110 ca        1 56N     -0.104500
     16 C4'         2.1270    4.5670   -4.4380 ca        1 56N     -0.152000
     17 C5'         2.8290    4.5760   -3.2330 ca        1 56N     -0.104500
     18 C6'         2.8040    3.4640   -2.3920 ca        1 56N     -0.163500
     19 H1         -0.0450   -0.0070   -1.0180 ho        1 56N      0.426000
     20 H2          0.6800   -1.4270    1.8350 ho        1 56N      0.431000
     21 H3          3.7320   -1.8190    1.5040 ho        1 56N      0.426000
     22 H4          1.6630    2.2200   -0.2220 h2        1 56N      0.062700
     23 H5          2.0350   -0.8890   -0.5390 h1        1 56N      0.088700
     24 H6          1.4530    0.8010    2.0240 h1        1 56N      0.058700
     25 H7          3.7410    0.2050    2.7320 h1        1 56N      0.058700
     26 H8          3.5980    2.2510    1.4020 h1        1 56N      0.052700
     27 H9          5.9440    1.4170    1.8620 h1        1 56N      0.068700
     28 H10         5.9070    0.4660    0.2850 h1        1 56N      0.068700
     29 H11         5.6500    2.5270   -0.7210 ho        1 56N      0.415000
     30 H12         0.7780    1.4250   -4.2670 ha        1 56N      0.148000
     31 H13         0.8460    3.4310   -5.7660 ha        1 56N      0.135500
     32 H14         2.1530    5.4460   -5.0970 ha        1 56N      0.135000
     33 H15         3.4130    5.4620   -2.9430 ha        1 56N      0.135500
     34 H16         3.3780    3.4580   -1.4530 ha        1 56N      0.148000
@<TRIPOS>BOND
     1    1    6 1   
     2    1   19 1   
     3    2    7 1   
     4    2   20 1   
     5    3    8 1   
     6    3   21 1   
     7    4    5 1   
     8    4    9 1   
     9    5    6 1   
    10    5   12 1   
    11    5   22 1   
    12    6    7 1   
    13    6   23 1   
    14    7    8 1   
    15    7   24 1   
    16    8    9 1   
    17    8   25 1   
    18    9   10 1   
    19    9   26 1   
    20   10   11 1   
    21   10   27 1   
    22   10   28 1   
    23   11   29 1   
    24   12   13 1   
    25   13   14 ar  
    26   13   18 ar  
    27   14   15 ar  
    28   14   30 1   
    29   15   16 ar  
    30   15   31 1   
    31   16   17 ar  
    32   16   32 1   
    33   17   18 ar  
    34   17   33 1   
    35   18   34 1   
@<TRIPOS>SUBSTRUCTURE
     1 56N         1 TEMP              0 ****  ****    0 ROOT
