@<TRIPOS>MOLECULE
molecule
   52    52     1     0     0
SMALL
bcc


@<TRIPOS>ATOM
      1 C1           1.5290     0.0000     0.0000 c3         1 56P       0.187500
      2 C2           2.0320     0.0000     1.4210 c          1 56P       0.662100
      3 C20          0.2250     4.4550     0.0290 c3         1 56P      -0.080400
      4 O5           2.4730    -1.1350     3.4820 oh         1 56P      -0.356100
      5 N6           2.0180     1.1960    -0.6910 n3         1 56P      -0.796500
      6 C10          3.6360     0.6260    -2.8430 ca         1 56P      -0.334500
      7 C11          3.8450    -0.7260    -3.0470 ca         1 56P      -0.003000
      8 C12          3.8750    -1.2350    -4.3320 ca         1 56P      -0.141300
      9 C13          3.6970    -0.3900    -5.4140 ca         1 56P       0.190900
     10 C14          3.4880     0.9630    -5.2090 ca         1 56P      -0.185000
     11 C15          3.4590     1.4700    -3.9230 ca         1 56P      -0.013000
     12 C19          1.0680     3.2100     0.3190 c3         1 56P      -0.098400
     13 C18          1.1150     2.3250    -0.9290 c3         1 56P       0.240800
     14 C28          0.0000     0.0000     0.0000 c3         1 56P      -0.098100
     15 N4           2.0010    -1.1350     2.1470 ns         1 56P      -0.462400
     16 O3           2.4650     1.0220     1.9100 o          1 56P      -0.574100
     17 S7           3.5910     1.2720    -1.2050 sy         1 56P       1.429200
     18 O8           3.9130     2.6520    -1.3080 o          1 56P      -0.621800
     19 O9           4.3220     0.3620    -0.3930 o          1 56P      -0.621800
     20 F16          3.7260    -0.8860    -6.6710 f          1 56P      -0.125900
     21 C17          4.1010    -2.7080    -4.5540 c3         1 56P      -0.046800
     22 H1           1.8900    -0.8850    -0.5100 h1         1 56P       0.068700
     23 H2          -0.7800     4.1550    -0.2390 hc         1 56P       0.044700
     24 H3           0.6680     5.0080    -0.7900 hc         1 56P       0.044700
     25 H5           2.3570    -1.9920     3.8560 ho         1 56P       0.404000
     26 H6           3.8280    -1.4420    -2.2340 ha         1 56P       0.150000
     27 H7           3.3490     1.6250    -6.0550 ha         1 56P       0.154000
     28 H8           3.2960     2.5280    -3.7610 ha         1 56P       0.150000
     29 H9           0.6250     2.6570     1.1380 hc         1 56P       0.071700
     30 H10          2.0740     3.5100     0.5870 hc         1 56P       0.071700
     31 H11          0.1210     1.9530    -1.1460 h1         1 56P       0.053700
     32 H12          1.4760     2.9050    -1.7700 h1         1 56P       0.053700
     33 H13         -0.3610     0.8290     0.5960 hc         1 56P       0.051700
     34 H14         -0.3610     0.1010    -1.0160 hc         1 56P       0.051700
     35 H15         -0.3610    -0.9310     0.4200 hc         1 56P       0.051700
     36 H16          1.6690    -1.9840     1.7340 hn         1 56P       0.320500
     37 H17          3.1730    -3.1740    -4.8610 hc         1 56P       0.054367
     38 H18          4.4470    -3.1630    -3.6340 hc         1 56P       0.054367
     39 H19          4.8470    -2.8460    -5.3270 hc         1 56P       0.054367
     40 C21          0.1780     5.3400     1.2750 c3         1 56P      -0.072400
     41 C22         -0.6650     6.5840     0.9860 c3         1 56P      -0.112400
     42 C23         -0.7130     7.4690     2.2330 c3         1 56P       0.089800
     43 N24         -1.5210     8.6630     1.9550 nz         1 56P      -0.810600
     44 H4           1.1840     5.6390     1.5440 hc         1 56P       0.063200
     45 H20         -0.2650     4.7860     2.0950 hc         1 56P       0.063200
     46 H21         -1.6700     6.2850     0.7170 hc         1 56P       0.063700
     47 H22         -0.2220     7.1380     0.1670 hc         1 56P       0.063700
     48 H23          0.2930     7.7680     2.5030 hx         1 56P       0.114200
     49 H24         -1.1560     6.9160     3.0520 hx         1 56P       0.114200
     50 H25         -1.5850     9.2230     2.7830 hn         1 56P       0.456133
     51 H26         -1.0890     9.1950     1.2250 hn         1 56P       0.456133
     52 H243        -2.4380     8.3860     1.6680 hn         1 56P       0.456133
@<TRIPOS>BOND
     1    12     3 1
     2    12    13 1
     3    19    17 2
     4    14     1 1
     5    18    17 2
     6    17     5 1
     7    17     6 1
     8     5     1 1
     9     5    13 1
    10     1     2 1
    11     6    11 ar
    12     6     7 ar
    13     2    15 1
    14     2    16 2
    15    15     4 1
    16    11    10 ar
    17     7     8 ar
    18    10     9 ar
    19     8     9 ar
    20     8    21 1
    21     9    20 1
    22     1    22 1
    23     3    23 1
    24     3    24 1
    25     4    25 1
    26     7    26 1
    27    10    27 1
    28    11    28 1
    29    12    29 1
    30    12    30 1
    31    13    31 1
    32    13    32 1
    33    14    33 1
    34    14    34 1
    35    14    35 1
    36    15    36 1
    37    21    37 1
    38    21    38 1
    39    21    39 1
    40     3    40 1
    41    40    41 1
    42    41    42 1
    43    42    43 1
    44    40    44 1
    45    40    45 1
    46    41    46 1
    47    41    47 1
    48    42    48 1
    49    42    49 1
    50    43    50 1
    51    43    51 1
    52    52    43 1
@<TRIPOS>SUBSTRUCTURE
     1 56P         1 TEMP              0 ****  ****    0 ROOT
