@<TRIPOS>MOLECULE
56Q
   34    34     1     0     0
SMALL
bcc


@<TRIPOS>ATOM
      1 C1           1.5300     0.0000     0.0000 c3         1 56Q       0.135500
      2 C2           2.0340     0.0000     1.4200 c          1 56Q       0.558100
      3 O5           2.1810    -1.0100     3.5850 oh         1 56Q      -0.437100
      4 N6           2.0180     1.1960    -0.6920 n3         1 56Q      -0.501500
      5 C10          1.8950     0.9970    -3.4330 ca         1 56Q      -0.174500
      6 C11          1.4060    -0.2140    -3.8870 ca         1 56Q       0.024000
      7 C12          0.5570    -0.2520    -4.9780 ca         1 56Q      -0.151300
      8 C13          0.1980     0.9230    -5.6170 ca         1 56Q       0.153900
      9 C14          0.6890     2.1350    -5.1610 ca         1 56Q      -0.160000
     10 C15          1.5370     2.1710    -4.0700 ca         1 56Q       0.026000
     11 C18          1.6640     2.5270    -0.1910 c3         1 56Q       0.273100
     12 C28          0.0000     0.0000     0.0000 c3         1 56Q      -0.021100
     13 N4           1.7080    -1.0100     2.2500 ns         1 56Q      -0.056400
     14 O3           2.7310     0.9100     1.8170 o          1 56Q      -0.605100
     15 S7           2.9700     1.0450    -2.0380 sy         1 56Q       1.059200
     16 O8           3.7100     2.2530    -2.1440 o          1 56Q      -0.583800
     17 O9           3.5780    -0.2360    -1.9570 o          1 56Q      -0.583800
     18 F16         -0.6310     0.8870    -6.6830 f          1 56Q      -0.122900
     19 C17          0.0250    -1.5720    -5.4730 c3         1 56Q       0.071200
     20 H1           1.8910    -0.8850    -0.5110 h1         1 56Q       0.062700
     21 H2           2.0600    -1.8660     3.9620 ho         1 56Q       0.392000
     22 H3           1.6870    -1.1330    -3.3870 ha         1 56Q       0.126000
     23 H4           0.4090     3.0550    -5.6600 ha         1 56Q       0.125000
     24 H5           1.9210     3.1190    -3.7140 ha         1 56Q       0.128000
     25 H6           1.0900     2.4280     0.7230 h1         1 56Q       0.009033
     26 H7           2.5670     3.0900     0.0100 h1         1 56Q       0.009033
     27 H8           1.0720     3.0470    -0.9340 h1         1 56Q       0.009033
     28 H9          -0.3610     0.6050    -0.8230 hc         1 56Q       0.013700
     29 H10         -0.3610    -1.0150    -0.1130 hc         1 56Q       0.013700
     30 H11         -0.3610     0.4100     0.9350 hc         1 56Q       0.013700
     31 H12          1.1660    -1.7810     1.9110 hn         1 56Q       0.154500
     32 H13          0.4780    -2.3780    -4.9080 hc         1 56Q       0.013367
     33 H14          0.2640    -1.6870    -6.5230 hc         1 56Q       0.013367
     34 H15         -1.0500    -1.6000    -5.3420 hc         1 56Q       0.013367
@<TRIPOS>BOND
     1     1     2 1   
     2     1     4 1   
     3     1    12 1   
     4     1    20 1   
     5     2    13 1   
     6     2    14 2   
     7     3    13 1   
     8     3    21 1   
     9     4    11 1   
    10     4    15 1   
    11     5     6 ar  
    12     5    10 ar  
    13     5    15 1   
    14     6     7 ar  
    15     6    22 1   
    16     7     8 ar  
    17     7    19 1   
    18     8     9 ar  
    19     8    18 1   
    20     9    10 ar  
    21     9    23 1   
    22    10    24 1   
    23    11    25 1   
    24    11    26 1   
    25    11    27 1   
    26    12    28 1   
    27    12    29 1   
    28    12    30 1   
    29    13    31 1   
    30    15    16 2   
    31    15    17 2   
    32    19    32 1   
    33    19    33 1   
    34    19    34 1   
@<TRIPOS>SUBSTRUCTURE
     1 56Q         1 TEMP              0 ****  ****    0 ROOT
