@<TRIPOS>MOLECULE
molecule
   34    34     1     0     0
SMALL
bcc


@<TRIPOS>ATOM
      1 C1           1.5300     0.0000     0.0000 c3         1 56Q       0.178500
      2 C2           2.0340     0.0000     1.4200 c          1 56Q       0.660100
      3 O5           2.1810    -1.0100     3.5850 oh         1 56Q      -0.359100
      4 N6           2.0180     1.1960    -0.6920 n3         1 56Q      -0.798500
      5 C10          1.8950     0.9970    -3.4330 ca         1 56Q      -0.332500
      6 C11          1.4060    -0.2140    -3.8870 ca         1 56Q      -0.008000
      7 C12          0.5570    -0.2520    -4.9780 ca         1 56Q      -0.143300
      8 C13          0.1980     0.9230    -5.6170 ca         1 56Q       0.183900
      9 C14          0.6890     2.1350    -5.1610 ca         1 56Q      -0.186000
     10 C15          1.5370     2.1710    -4.0700 ca         1 56Q      -0.007000
     11 C18          1.6640     2.5270    -0.1910 c3         1 56Q       0.233100
     12 C28          0.0000     0.0000     0.0000 c3         1 56Q      -0.114100
     13 N4           1.7080    -1.0100     2.2500 ns         1 56Q      -0.471400
     14 O3           2.7310     0.9100     1.8170 o          1 56Q      -0.558100
     15 S7           2.9700     1.0450    -2.0380 sy         1 56Q       1.433200
     16 O8           3.7100     2.2530    -2.1440 o          1 56Q      -0.628800
     17 O9           3.5780    -0.2360    -1.9570 o          1 56Q      -0.628800
     18 F16         -0.6310     0.8870    -6.6830 f          1 56Q      -0.131900
     19 C17          0.0250    -1.5720    -5.4730 c3         1 56Q      -0.044800
     20 H1           1.8910    -0.8850    -0.5110 h1         1 56Q       0.093700
     21 H2           2.0600    -1.8660     3.9620 ho         1 56Q       0.399000
     22 H3           1.6870    -1.1330    -3.3870 ha         1 56Q       0.153000
     23 H4           0.4090     3.0550    -5.6600 ha         1 56Q       0.153000
     24 H5           1.9210     3.1190    -3.7140 ha         1 56Q       0.158000
     25 H6           1.0900     2.4280     0.7230 h1         1 56Q       0.049367
     26 H7           2.5670     3.0900     0.0100 h1         1 56Q       0.049367
     27 H8           1.0720     3.0470    -0.9340 h1         1 56Q       0.049367
     28 H9          -0.3610     0.6050    -0.8230 hc         1 56Q       0.050367
     29 H10         -0.3610    -1.0150    -0.1130 hc         1 56Q       0.050367
     30 H11         -0.3610     0.4100     0.9350 hc         1 56Q       0.050367
     31 H12          1.1660    -1.7810     1.9110 hn         1 56Q       0.318500
     32 H13          0.4780    -2.3780    -4.9080 hc         1 56Q       0.050367
     33 H14          0.2640    -1.6870    -6.5230 hc         1 56Q       0.050367
     34 H15         -1.0500    -1.6000    -5.3420 hc         1 56Q       0.050367
@<TRIPOS>BOND
     1    17    15 2
     2    16    15 2
     3    12     1 1
     4    15     4 1
     5    15     5 1
     6     4     1 1
     7     4    11 1
     8     1     2 1
     9     5    10 ar
    10     5     6 ar
    11     2    13 1
    12     2    14 2
    13    13     3 1
    14    10     9 ar
    15     6     7 ar
    16     9     8 ar
    17     7     8 ar
    18     7    19 1
    19     8    18 1
    20     1    20 1
    21     3    21 1
    22     6    22 1
    23     9    23 1
    24    10    24 1
    25    11    25 1
    26    11    26 1
    27    11    27 1
    28    12    28 1
    29    12    29 1
    30    12    30 1
    31    13    31 1
    32    19    32 1
    33    19    33 1
    34    19    34 1
@<TRIPOS>SUBSTRUCTURE
     1 56Q         1 TEMP              0 ****  ****    0 ROOT
