@<TRIPOS>MOLECULE
56R
   50    51     1     0     0
SMALL
bcc


@<TRIPOS>ATOM
      1 C1           1.5310     0.0000     0.0000 c3         1 56R       0.138500
      2 C2           2.0320     0.0000     1.4210 c          1 56R       0.559100
      3 C3          -0.7720     4.2530    -4.3420 c3         1 56R       0.027100
      4 O5           2.6030    -1.1600     3.4370 oh         1 56R      -0.433100
      5 N6           2.0190     1.1960    -0.6900 n3         1 56R      -0.490500
      6 C10          2.1460     0.6590    -3.3860 ca         1 56R      -0.167500
      7 C11          1.7860    -0.6510    -3.6420 ca         1 56R       0.037000
      8 C12          1.0430    -0.9560    -4.7670 ca         1 56R      -0.131300
      9 C13          0.6610     0.0500    -5.6380 ca         1 56R       0.166900
     10 C14          1.0220     1.3610    -5.3800 ca         1 56R      -0.180000
     11 C15          1.7650     1.6640    -4.2550 ca         1 56R      -0.005000
     12 C19          0.2890     2.8710    -0.9930 ca         1 56R      -0.097300
     13 C20         -0.9320     2.6800    -0.3730 ca         1 56R      -0.036000
     14 C21         -2.1010     2.9990    -1.0390 ca         1 56R      -0.084000
     15 C22         -2.0490     3.5070    -2.3230 ca         1 56R      -0.070000
     16 C24          0.3420     3.3860    -2.2740 ca         1 56R      -0.083000
     17 C23         -0.8290     3.6980    -2.9420 ca         1 56R      -0.213300
     18 C18          1.5640     2.5230    -0.2680 c3         1 56R       0.254100
     19 C28          0.0000     0.0000     0.0000 c3         1 56R      -0.036100
     20 N4           2.1320    -1.1600     2.1010 ns         1 56R      -0.031400
     21 O3           2.3460     1.0440     1.9530 o          1 56R      -0.620100
     22 S7           3.0860     1.0480    -1.9480 sy         1 56R       1.056200
     23 O8           3.6340     2.3410    -2.1640 o          1 56R      -0.575300
     24 O9           3.8810    -0.0960    -1.6660 o          1 56R      -0.575300
     25 F16         -0.0640    -0.2480    -6.7390 f          1 56R      -0.115900
     26 C17          0.6510    -2.3850    -5.0470 c3         1 56R       0.066200
     27 N5          -0.6940     5.7190    -4.2850 nz         1 56R       0.071400
     28 H1           1.8920    -0.8850    -0.5100 h1         1 56R       0.051700
     29 H2           0.1020     3.8640    -4.8500 hx         1 56R       0.084700
     30 H3          -1.6640     3.9590    -4.8830 hx         1 56R       0.084700
     31 H4           2.7350    -2.0480     3.7240 ho         1 56R       0.402000
     32 H5           2.0850    -1.4380    -2.9610 ha         1 56R       0.130000
     33 H6           0.7240     2.1490    -6.0610 ha         1 56R       0.106000
     34 H7           2.0480     2.6900    -4.0530 ha         1 56R       0.114000
     35 H8          -0.9700     2.3550     0.6590 ha         1 56R       0.136000
     36 H9          -3.0580     2.8570    -0.5510 ha         1 56R       0.126000
     37 H10         -2.9660     3.7490    -2.8470 ha         1 56R       0.108000
     38 H11          1.2990     3.6160    -2.7250 ha         1 56R       0.133000
     39 H12          2.3250     3.2570    -0.5030 h1         1 56R       0.069200
     40 H13          1.3830     2.5190     0.8000 h1         1 56R       0.069200
     41 H14         -0.3610     0.5600     0.8540 hc         1 56R       0.020367
     42 H15         -0.3610     0.4600    -0.9120 hc         1 56R       0.020367
     43 H16         -0.3610    -1.0200     0.0580 hc         1 56R       0.020367
     44 H17          1.8860    -2.0230     1.6580 hn         1 56R       0.155500
     45 H18          1.0230    -2.6780    -6.0210 hc         1 56R       0.021033
     46 H19         -0.4290    -2.4720    -5.0310 hc         1 56R       0.021033
     47 H20          1.0770    -3.0310    -4.2880 hc         1 56R       0.021033
     48 H21         -1.0670     6.0390    -3.4140 hn         1 56R       0.224467
     49 H22          0.2610     6.0050    -4.3650 hn         1 56R       0.224467
     50 H53         -1.2240     6.1100    -5.0390 hn         1 56R       0.224467
@<TRIPOS>BOND
     1     1     2 1   
     2     1     5 1   
     3     1    19 1   
     4     1    28 1   
     5     2    20 1   
     6     2    21 2   
     7     3    17 1   
     8     3    27 1   
     9     3    29 1   
    10     3    30 1   
    11     4    20 1   
    12     4    31 1   
    13     5    18 1   
    14     5    22 1   
    15     6     7 ar  
    16     6    11 ar  
    17     6    22 1   
    18     7     8 ar  
    19     7    32 1   
    20     8     9 ar  
    21     8    26 1   
    22     9    10 ar  
    23     9    25 1   
    24    10    11 ar  
    25    10    33 1   
    26    11    34 1   
    27    12    13 ar  
    28    12    16 ar  
    29    12    18 1   
    30    13    14 ar  
    31    13    35 1   
    32    14    15 ar  
    33    14    36 1   
    34    15    17 ar  
    35    15    37 1   
    36    16    17 ar  
    37    16    38 1   
    38    18    39 1   
    39    18    40 1   
    40    19    41 1   
    41    19    42 1   
    42    19    43 1   
    43    20    44 1   
    44    22    23 2   
    45    22    24 2   
    46    26    45 1   
    47    26    46 1   
    48    26    47 1   
    49    27    48 1   
    50    27    49 1   
    51    27    50 1   
@<TRIPOS>SUBSTRUCTURE
     1 56R         1 TEMP              0 ****  ****    0 ROOT
