@<TRIPOS>MOLECULE
molecule
   47    46     1     0     0
SMALL
bcc


@<TRIPOS>ATOM
      1 C10          0.0000     0.0000     0.0000 c3         1 56S      -0.072400
      2 C15         -4.1380    -0.0020     2.5280 c3         1 56S       0.144100
      3 C17         -4.6480     1.4410     2.5010 c3         1 56S      -0.103100
      4 C01          9.6920     0.0030    -5.7680 c3         1 56S      -0.092100
      5 C02          8.1620     0.0020    -5.7680 c3         1 56S      -0.084400
      6 C03          7.6510     0.0020    -4.3250 c3         1 56S      -0.081400
      7 C04          6.1210     0.0010    -4.3260 c3         1 56S      -0.082400
      8 C05          5.6100     0.0020    -2.8840 c3         1 56S      -0.082400
      9 C06          4.0810     0.0010    -2.8850 c3         1 56S      -0.081400
     10 C07          3.5710     0.0010    -1.4420 c3         1 56S      -0.082400
     11 C08          2.0410     0.0010    -1.4420 c3         1 56S      -0.080400
     12 C09          1.5300     0.0000     0.0000 c3         1 56S      -0.084400
     13 C11         -0.5100     0.0000     1.4430 c3         1 56S      -0.127400
     14 C12         -2.0170    -0.0020     1.4420 c          1 56S       0.630100
     15 O13         -2.6210    -0.0020     0.3950 o          1 56S      -0.554000
     16 O14         -2.6890    -0.0010     2.6040 os         1 56S      -0.427900
     17 C16         -4.7130    -0.7230     3.7500 c3         1 56S      -0.103100
     18 H102        -0.3610     0.8850    -0.5110 hc         1 56S       0.058700
     19 H101        -0.3610    -0.8850    -0.5110 hc         1 56S       0.058700
     20 H151        -4.4680    -0.5180     1.6340 h1         1 56S       0.069700
     21 H172        -4.1750     2.0050     3.2950 hc         1 56S       0.046367
     22 H173        -5.7220     1.4470     2.6440 hc         1 56S       0.046367
     23 H171        -4.4080     1.8910     1.5450 hc         1 56S       0.046367
     24 H011        10.0530    -0.8810    -5.2570 hc         1 56S       0.032367
     25 H012        10.0530     0.0030    -6.7890 hc         1 56S       0.032367
     26 H013        10.0520     0.8880    -5.2580 hc         1 56S       0.032367
     27 H022         7.8000     0.8860    -6.2790 hc         1 56S       0.039700
     28 H021         7.8010    -0.8830    -6.2790 hc         1 56S       0.039700
     29 H031         8.0120     0.8870    -3.8150 hc         1 56S       0.040700
     30 H032         8.0130    -0.8820    -3.8150 hc         1 56S       0.040700
     31 H042         5.7610    -0.8840    -4.8360 hc         1 56S       0.041200
     32 H041         5.7600     0.8850    -4.8370 hc         1 56S       0.041200
     33 H052         5.9720    -0.8830    -2.3720 hc         1 56S       0.040700
     34 H051         5.9710     0.8870    -2.3730 hc         1 56S       0.040700
     35 H062         3.7200     0.8850    -3.3960 hc         1 56S       0.041700
     36 H061         3.7210    -0.8840    -3.3950 hc         1 56S       0.041700
     37 H071         3.9320    -0.8840    -0.9310 hc         1 56S       0.040700
     38 H072         3.9320     0.8850    -0.9310 hc         1 56S       0.040700
     39 H081         1.6800    -0.8840    -1.9530 hc         1 56S       0.043700
     40 H082         1.6800     0.8850    -1.9520 hc         1 56S       0.043700
     41 H091         1.8910     0.8840     0.5110 hc         1 56S       0.040700
     42 H092         1.8910    -0.8850     0.5100 hc         1 56S       0.040700
     43 H112        -0.1480    -0.8840     1.9540 hc         1 56S       0.070700
     44 H111        -0.1500     0.8850     1.9530 hc         1 56S       0.070700
     45 H162        -5.7950    -0.6960     3.7100 hc         1 56S       0.046367
     46 H161        -4.3730    -0.2310     4.6530 hc         1 56S       0.046367
     47 H163        -4.3780    -1.7530     3.7520 hc         1 56S       0.046367
@<TRIPOS>BOND
     1     4     5 1
     2     6     5 1
     3     6     7 1
     4     8     7 1
     5     8     9 1
     6     9    10 1
     7    10    11 1
     8    11    12 1
     9    12     1 1
    10     1    13 1
    11    13    14 1
    12    15    14 2
    13    14    16 1
    14    16     2 1
    15     2     3 1
    16     2    17 1
    17     1    18 1
    18     1    19 1
    19     2    20 1
    20     3    21 1
    21     3    22 1
    22     3    23 1
    23     4    24 1
    24     4    25 1
    25     4    26 1
    26     5    27 1
    27     5    28 1
    28     6    29 1
    29     6    30 1
    30     7    31 1
    31     7    32 1
    32     8    33 1
    33     8    34 1
    34     9    35 1
    35     9    36 1
    36    10    37 1
    37    10    38 1
    38    11    39 1
    39    11    40 1
    40    12    41 1
    41    12    42 1
    42    13    43 1
    43    13    44 1
    44    17    45 1
    45    17    46 1
    46    17    47 1
@<TRIPOS>SUBSTRUCTURE
     1 56S         1 TEMP              0 ****  ****    0 ROOT
