@<TRIPOS>MOLECULE
56S
   47    46     1     0     0
SMALL
bcc


@<TRIPOS>ATOM
      1 C10        -0.0810    0.2340   -0.1140 c3        1 56S     -0.079400
      2 C15        -4.1160   -0.1060    2.4840 c3        1 56S      0.148100
      3 C17        -4.6080    1.2200    3.0250 c3        1 56S     -0.108100
      4 C01         9.7200   -0.1890   -5.6660 c3        1 56S     -0.092100
      5 C02         8.2190   -0.3160   -5.6530 c3        1 56S     -0.080400
      6 C03         7.6510   -0.0520   -4.2750 c3        1 56S     -0.079400
      7 C04         6.1430   -0.1810   -4.2660 c3        1 56S     -0.079400
      8 C05         5.5760    0.0840   -2.8880 c3        1 56S     -0.078400
      9 C06         4.0680   -0.0450   -2.8800 c3        1 56S     -0.079400
     10 C07         3.5020    0.2210   -1.5020 c3        1 56S     -0.079400
     11 C08         1.9930    0.0920   -1.4940 c3        1 56S     -0.079400
     12 C09         1.4270    0.3590   -0.1160 c3        1 56S     -0.078400
     13 C11        -0.6390    0.4840    1.2720 c3        1 56S     -0.128400
     14 C12        -2.1370    0.5000    1.2530 c         1 56S      0.634100
     15 O13        -2.8920    0.9620    0.3940 o         1 56S     -0.547000
     16 O14        -2.6760   -0.0760    2.3680 os        1 56S     -0.445900
     17 C16        -4.4200   -1.2540    3.4270 c3        1 56S     -0.108100
     18 H102       -0.5290    0.9690   -0.8350 hc        1 56S      0.057200
     19 H101       -0.3770   -0.7910   -0.4590 hc        1 56S      0.057200
     20 H151       -4.5590   -0.2980    1.4660 h1        1 56S      0.068700
     21 H172       -5.7150    1.1820    3.1630 hc        1 56S      0.047367
     22 H173       -4.1280    1.4460    4.0070 hc        1 56S      0.047367
     23 H171       -4.3590    2.0380    2.3060 hc        1 56S      0.047367
     24 H011       10.1180   -0.3880   -6.6910 hc        1 56S      0.032700
     25 H012       10.1840   -0.9200   -4.9600 hc        1 56S      0.032700
     26 H013       10.0320    0.8390   -5.3600 hc        1 56S      0.032700
     27 H022        7.9250   -1.3460   -5.9870 hc        1 56S      0.038700
     28 H021        7.7730    0.4070   -6.3860 hc        1 56S      0.038700
     29 H031        8.0950   -0.7750   -3.5410 hc        1 56S      0.039700
     30 H032        7.9420    0.9780   -3.9400 hc        1 56S      0.039700
     31 H042        5.8510   -1.2110   -4.6010 hc        1 56S      0.039700
     32 H041        5.6990    0.5430   -5.0000 hc        1 56S      0.039700
     33 H052        6.0200   -0.6390   -2.1540 hc        1 56S      0.039700
     34 H051        5.8670    1.1150   -2.5530 hc        1 56S      0.039700
     35 H062        3.6250    0.6780   -3.6150 hc        1 56S      0.040200
     36 H061        3.7770   -1.0750   -3.2140 hc        1 56S      0.040200
     37 H071        3.9450   -0.5010   -0.7670 hc        1 56S      0.039700
     38 H072        3.7930    1.2520   -1.1680 hc        1 56S      0.039700
     39 H081        1.5500    0.8160   -2.2290 hc        1 56S      0.042700
     40 H082        1.7020   -0.9380   -1.8280 hc        1 56S      0.042700
     41 H091        1.7210    1.3890    0.2190 hc        1 56S      0.040700
     42 H092        1.8680   -0.3660    0.6190 hc        1 56S      0.040700
     43 H112       -0.2990    1.4840    1.6550 hc        1 56S      0.076700
     44 H111       -0.2780   -0.2990    1.9900 hc        1 56S      0.076700
     45 H162       -4.0270   -2.2120    3.0100 hc        1 56S      0.047367
     46 H161       -5.5250   -1.3360    3.5580 hc        1 56S      0.047367
     47 H163       -3.9440   -1.0790    4.4210 hc        1 56S      0.047367
@<TRIPOS>BOND
     1    1   12 1   
     2    1   13 1   
     3    1   18 1   
     4    1   19 1   
     5    2    3 1   
     6    2   16 1   
     7    2   17 1   
     8    2   20 1   
     9    3   21 1   
    10    3   22 1   
    11    3   23 1   
    12    4    5 1   
    13    4   24 1   
    14    4   25 1   
    15    4   26 1   
    16    5    6 1   
    17    5   27 1   
    18    5   28 1   
    19    6    7 1   
    20    6   29 1   
    21    6   30 1   
    22    7    8 1   
    23    7   31 1   
    24    7   32 1   
    25    8    9 1   
    26    8   33 1   
    27    8   34 1   
    28    9   10 1   
    29    9   35 1   
    30    9   36 1   
    31   10   11 1   
    32   10   37 1   
    33   10   38 1   
    34   11   12 1   
    35   11   39 1   
    36   11   40 1   
    37   12   41 1   
    38   12   42 1   
    39   13   14 1   
    40   13   43 1   
    41   13   44 1   
    42   14   15 2   
    43   14   16 1   
    44   17   45 1   
    45   17   46 1   
    46   17   47 1   
@<TRIPOS>SUBSTRUCTURE
     1 56S         1 TEMP              0 ****  ****    0 ROOT
