@<TRIPOS>MOLECULE
molecule
   18    19     1     0     0
SMALL
bcc


@<TRIPOS>ATOM
      1 C1           0.0000     0.0000     0.0000 ca         1 56U      -0.131000
      2 C2           1.3880     0.0000     0.0000 ca         1 56U      -0.082200
      3 C3           2.0860     0.0000     1.2190 ca         1 56U       0.086400
      4 C4           1.3730     0.0010     2.4210 ca         1 56U      -0.061000
      5 C5           0.0070     0.0010     2.4010 ca         1 56U      -0.147000
      6 F12          5.8420    -0.6640    -0.3010 f          1 56U      -0.223800
      7 F11          4.7620    -0.6650    -2.3140 f          1 56U      -0.223800
      8 C8           3.5630    -0.0030    -0.3760 cc         1 56U       0.335800
      9 N7           2.3500    -0.0020    -0.9900 na         1 56U      -0.246300
     10 N9           3.4100    -0.0010     0.9160 nd         1 56U      -0.561100
     11 C6          -0.6840     0.0010     1.1970 ca         1 56U      -0.104000
     12 H1          -0.5440    -0.0000    -0.9370 ha         1 56U       0.130000
     13 H2           1.9030     0.0010     3.3660 ha         1 56U       0.146000
     14 H3          -0.5430     0.0020     3.3350 ha         1 56U       0.136000
     15 H4           5.2120     1.0160    -1.2630 h2         1 56U       0.085700
     16 H5           2.1860     0.1260    -1.9700 hn         1 56U       0.310700
     17 H7          -1.7670     0.0010     1.1980 ha         1 56U       0.136000
     18 C10          4.8910    -0.0040    -1.0880 c3         1 56U       0.414600
@<TRIPOS>BOND
     1     1     2 ar
     2     1    11 ar
     3     7    18 1
     4     9     2 1
     5     9     8 1
     6     2     3 ar
     7    11     5 ar
     8     6    18 1
     9    18     8 1
    10     8    10 2
    11     5     4 ar
    12     3    10 1
    13     3     4 ar
    14     1    12 1
    15     4    13 1
    16     5    14 1
    17    18    15 1
    18     9    16 1
    19    11    17 1
@<TRIPOS>SUBSTRUCTURE
     1 56U         1 TEMP              0 ****  ****    0 ROOT
