@<TRIPOS>MOLECULE
molecule
   21    23     1     0     0
SMALL
bcc


@<TRIPOS>ATOM
      1 C1           0.0000     0.0000     0.0000 ca         1 56V      -0.073000
      2 C2           1.3980     0.0000     0.0000 ca         1 56V       0.110400
      3 C3           2.0860     0.0000     1.2180 ca         1 56V      -0.059200
      4 C4           1.3890    -0.0000     2.4160 ca         1 56V      -0.121000
      5 C5           0.0090    -0.0000     2.4010 ca         1 56V      -0.118000
      6 C6          -0.6810     0.0060     1.1980 ca         1 56V      -0.141000
      7 C10          4.7120    -0.0020     1.6520 c3         1 56V       0.268800
      8 C11          5.9340    -0.0040     0.7360 c3         1 56V      -0.047300
      9 O13          4.7590     1.1590     2.4830 oh         1 56V      -0.595800
     10 S12          5.2370    -0.0030    -0.9420 ss         1 56V      -0.134300
     11 C8           3.5380    -0.0020    -0.4440 cc         1 56V       0.451700
     12 N7           2.3330    -0.0010    -0.9820 nd         1 56V      -0.567100
     13 N9           3.4540    -0.0010     0.9080 na         1 56V      -0.185300
     14 H1          -0.5450     0.0050    -0.9360 ha         1 56V       0.146000
     15 H2           1.9240    -0.0050     3.3580 ha         1 56V       0.128000
     16 H3          -0.5390     0.0040     3.3360 ha         1 56V       0.133000
     17 H4          -1.7640     0.0060     1.2000 ha         1 56V       0.135000
     18 H5           4.7450    -0.8860     2.2770 h2         1 56V       0.056700
     19 H6           6.5260    -0.8970     0.8980 h1         1 56V       0.097700
     20 H7           5.1750     0.9430     3.3010 ho         1 56V       0.418000
     21 H8           6.5290     0.8870     0.8980 h1         1 56V       0.097700
@<TRIPOS>BOND
     1     5     4 ar
     2     5     6 ar
     3     4     3 ar
     4     9     7 1
     5     7    13 1
     6     7     8 1
     7     6     1 ar
     8     3    13 1
     9     3     2 ar
    10    13    11 1
    11     8    10 1
    12     1     2 ar
    13     2    12 1
    14    11    10 1
    15    11    12 2
    16     1    14 1
    17     4    15 1
    18     5    16 1
    19     6    17 1
    20     7    18 1
    21     8    19 1
    22     9    20 1
    23     8    21 1
@<TRIPOS>SUBSTRUCTURE
     1 56V         1 TEMP              0 ****  ****    0 ROOT
