@<TRIPOS>MOLECULE
molecule
   48    47     1     0     0
SMALL
bcc


@<TRIPOS>ATOM
      1 C1           0.0000     0.0000     0.0000 c3         1 56W      -0.095400
      2 C2           1.5310     0.0000     0.0000 c3         1 56W      -0.103400
      3 C3           2.0400     0.0000     1.4420 c3         1 56W      -0.043400
      4 C4           3.5710    -0.0010     1.4420 c3         1 56W      -0.134700
      5 C5           4.0730    -1.2890     0.8420 c          1 56W       0.856600
      6 C6           4.0800     0.1250     2.8800 c3         1 56W      -0.240600
      7 C8           7.8670     1.3570     4.5410 c3         1 56W      -0.020400
      8 O1           5.3920    -1.5100     0.7390 o          1 56W      -0.833800
      9 C9           8.3460     1.6050     5.9740 c3         1 56W      -0.036300
     10 C13         -2.0110     0.1250    -1.4450 c          1 56W       0.877600
     11 O7          -2.6990    -0.8580    -1.5970 o          1 56W      -0.815300
     12 C           -0.5090     0.0010    -1.4420 c3         1 56W      -0.010500
     13 N           -0.1200    -1.2540    -2.1000 nz         1 56W      -0.797600
     14 O            3.2880    -2.1200     0.4540 o          1 56W      -0.833800
     15 P            5.8480     0.5700     2.8610 p5         1 56W       1.036400
     16 O6           6.0390     1.7970     2.0580 o          1 56W      -0.786500
     17 C12          9.7280     2.2060     5.9440 c          1 56W       0.885600
     18 O5           9.9360     3.3790     5.3250 o          1 56W      -0.872800
     19 O4          10.6480     1.6330     6.4780 o          1 56W      -0.872800
     20 N1           8.3820     0.3350     6.7030 ns         1 56W      -0.506900
     21 O3           8.1470     1.3690     8.6510 o          1 56W      -0.649100
     22 C11          8.3110    -0.9810     8.7960 c3         1 56W      -0.225100
     23 H4          -0.3610     0.8840     0.5110 hc         1 56W       0.069200
     24 H5          -0.3610    -0.8850     0.5100 hc         1 56W       0.069200
     25 H7           1.8920     0.8850    -0.5110 hc         1 56W       0.050200
     26 H6           1.8920    -0.8850    -0.5110 hc         1 56W       0.050200
     27 H8           1.6790     0.8850     1.9530 hc         1 56W       0.017700
     28 H9           1.6780    -0.8840     1.9530 hc         1 56W       0.017700
     29 H10          3.9330     0.8360     0.8570 hc         1 56W       0.059700
     30 H12          3.5190     0.8950     3.3950 hc         1 56W       0.020700
     31 H13          3.9500    -0.8210     3.3930 hc         1 56W       0.020700
     32 H15          5.7640     1.0410     5.4120 hc         1 56W      -0.011300
     33 H16          6.1250     1.6320     3.8620 hc         1 56W      -0.011300
     34 H17          7.9250     2.2800     3.9770 hc         1 56W       0.061700
     35 H18          8.4960     0.6090     4.0750 hc         1 56W       0.061700
     36 H1           7.6660     2.2870     6.4700 h1         1 56W       0.059700
     37 H           -0.0770     0.8380    -1.9780 hx         1 56W       0.096700
     38 H3           0.2010    -1.9060    -1.4110 hn         1 56W       0.440467
     39 H2          -0.9100    -1.6380    -2.5800 hn         1 56W       0.440467
     40 H19          9.1010    -0.1440     6.1970 hn         1 56W       0.316500
     41 H22          7.6730    -1.2880     7.9770 hc         1 56W       0.058700
     42 H21          9.2840    -1.4580     8.7950 hc         1 56W       0.058700
     43 H20          7.8080    -0.9490     9.7550 hc         1 56W       0.058700
     44 C10          8.2750     0.3260     8.0460 c          1 56W       0.652100
     45 C7           6.4190     0.8630     4.5670 c3         1 56W      -0.273600
     46 O2           6.6970    -0.6340     2.2110 o          1 56W      -0.786500
     47 HN3          0.6130    -1.0740    -2.7560 hn         1 56W       0.440467
     48 O8          -2.5860     1.3260    -1.2770 o          1 56W      -0.815300
@<TRIPOS>BOND
     1     1     2 1
     2     1    12 1
     3     2     3 1
     4     3     4 1
     5     4     5 1
     6     4     6 1
     7     5     8 1
     8     5    14 1
     9     6    15 1
    10    45     7 1
    11    45    15 1
    12     7     9 1
    13    46    15 1
    14     9    17 1
    15     9    20 1
    16    44    20 1
    17    44    21 2
    18    44    22 1
    19    48    10 1
    20    10    11 1
    21    10    12 1
    22    12    13 1
    23    15    16 1
    24    17    18 1
    25    17    19 1
    26     1    23 1
    27     1    24 1
    28     2    25 1
    29     2    26 1
    30     3    27 1
    31     3    28 1
    32     4    29 1
    33     6    30 1
    34     6    31 1
    35    45    32 1
    36    45    33 1
    37     7    34 1
    38     7    35 1
    39     9    36 1
    40    12    37 1
    41    13    38 1
    42    13    39 1
    43    20    40 1
    44    22    41 1
    45    22    42 1
    46    22    43 1
    47    47    13 1
@<TRIPOS>SUBSTRUCTURE
     1 56W         1 TEMP              0 ****  ****    0 ROOT
