@<TRIPOS>MOLECULE
molecule
   49    50     1     0     0
SMALL
bcc


@<TRIPOS>ATOM
      1 C1           0.0000     0.0000     0.0000 c3         1 56Y      -0.089100
      2 C2           1.5290     0.0000     0.0000 c3         1 56Y      -0.018100
      3 C3           2.0320     0.0000     1.4210 cc         1 56Y      -0.059300
      4 C4           2.3140    -1.1380     2.2140 cd         1 56Y      -0.244600
      5 C5           2.7510    -0.6750     3.4450 cc         1 56Y      -0.056600
      6 C6           3.7730     5.2790     1.6390 ca         1 56Y      -0.102300
      7 C11          3.0050     4.4770     0.6200 c3         1 56Y       0.151300
      8 C14          5.1150     5.5480     1.4360 ca         1 56Y      -0.045000
      9 C26          3.1660    -1.5310     4.6140 c3         1 56Y      -0.028800
     10 C27          2.1710    -2.5400     1.8110 c          1 56Y       0.603700
     11 C29          3.2870    -3.2280     1.0670 c3         1 56Y      -0.187100
     12 C7           2.3080     1.0950     2.1830 cd         1 56Y      -0.209900
     13 C8           2.1650     2.4940     1.7610 c          1 56Y       0.710700
     14 N6           2.7420     0.6660     3.4200 na         1 56Y      -0.126100
     15 N10          3.0890     3.0530     0.9550 n          1 56Y      -0.493800
     16 O28          1.1540    -3.1470     2.0740 o          1 56Y      -0.506100
     17 O9           1.2110     3.1490     2.1380 o          1 56Y      -0.596100
     18 C9           3.1360     5.7470     2.7690 ca         1 56Y      -0.007000
     19 C10          3.8500     6.4900     3.7110 ca         1 56Y      -0.219600
     20 C12          5.2040     6.7540     3.5030 ca         1 56Y      -0.114000
     21 C13          5.8280     6.2830     2.3660 ca         1 56Y      -0.114000
     22 O16          1.9930     6.7660     5.1030 o          1 56Y      -0.409100
     23 N17          3.8650     7.7140     5.8320 nz         1 56Y      -0.678400
     24 C16          4.1790     2.2360     0.4130 c3         1 56Y       0.093300
     25 H1          -0.3610     0.8070    -0.6250 hc         1 56Y       0.045033
     26 H2          -0.3610     0.1380     1.0120 hc         1 56Y       0.045033
     27 H3          -0.3610    -0.9450    -0.3870 hc         1 56Y       0.045033
     28 H4           1.8900    -0.8850    -0.5110 hc         1 56Y       0.045700
     29 H5           1.8900     0.8840    -0.5110 hc         1 56Y       0.045700
     30 H6           1.9670     4.7880     0.6240 h1         1 56Y       0.083200
     31 H7           3.4270     4.6420    -0.3630 h1         1 56Y       0.083200
     32 H8           5.6100     5.1800     0.5450 ha         1 56Y       0.162000
     33 H9           4.1030    -2.0240     4.3860 hc         1 56Y       0.057367
     34 H10          3.2890    -0.9090     5.4920 hc         1 56Y       0.057367
     35 H11          2.4030    -2.2770     4.8040 hc         1 56Y       0.057367
     36 H12          3.5510    -4.1450     1.5800 hc         1 56Y       0.062033
     37 H13          4.1500    -2.5750     1.0270 hc         1 56Y       0.062033
     38 H14          2.9610    -3.4590     0.0600 hc         1 56Y       0.062033
     39 H15          3.0110     1.2620     4.1770 hn         1 56Y       0.295700
     40 H16          2.0680     5.6070     2.8860 ha         1 56Y       0.189000
     41 H17          5.7640     7.3290     4.2300 ha         1 56Y       0.109000
     42 H18          6.8790     6.4880     2.2020 ha         1 56Y       0.162000
     43 H19          4.2300     8.5380     5.3970 hn         1 56Y       0.476467
     44 H20          4.6190     7.1710     6.2050 hn         1 56Y       0.476467
     45 H21          4.6690     1.7070     1.2210 h1         1 56Y       0.048700
     46 H22          4.8960     2.8770    -0.0860 h1         1 56Y       0.048700
     47 H23          3.7770     1.5230    -0.2960 h1         1 56Y       0.048700
     48 C15          3.1730     6.9970     4.9250 c          1 56Y       0.504700
     49 H173         3.2620     7.9740     6.5870 hn         1 56Y       0.476467
@<TRIPOS>BOND
     1    23    48 1   
     2    22    48 2   
     3    48    19 1   
     4    19    18 ar  
     5    19    20 ar  
     6    18     6 ar  
     7    24    15 1   
     8    20    21 ar  
     9     9     5 1   
    10     6     7 1   
    11     6     8 ar  
    12     7    15 1   
    13    15    13 1   
    14    14     5 1   
    15    14    12 1   
    16     5     4 2   
    17    21     8 ar  
    18    12    13 1   
    19    12     3 2   
    20    13    17 2   
    21     4    10 1   
    22     4     3 1   
    23    16    10 2   
    24    10    11 1   
    25     3     2 1   
    26     2     1 1   
    27     1    25 1   
    28     1    26 1   
    29     1    27 1   
    30     2    28 1   
    31     2    29 1   
    32     7    30 1   
    33     7    31 1   
    34     8    32 1   
    35     9    33 1   
    36     9    34 1   
    37     9    35 1   
    38    11    36 1   
    39    11    37 1   
    40    11    38 1   
    41    14    39 1   
    42    18    40 1   
    43    20    41 1   
    44    21    42 1   
    45    23    43 1   
    46    23    44 1   
    47    24    45 1   
    48    24    46 1   
    49    24    47 1   
    50    49    23 1   
@<TRIPOS>SUBSTRUCTURE
     1 56Y         1 TEMP              0 ****  ****    0 ROOT
