@<TRIPOS>MOLECULE
56Y
   49    50     1     0     0
SMALL
bcc


@<TRIPOS>ATOM
      1 C1           0.0000     0.0000     0.0000 c3         1 56Y       0.002900
      2 C2           1.5290     0.0000     0.0000 c3         1 56Y       0.052900
      3 C3           2.0320     0.0000     1.4210 cc         1 56Y      -0.054300
      4 C4           2.3140    -1.1380     2.2140 cc         1 56Y      -0.241600
      5 C5           2.7510    -0.6750     3.4450 cd         1 56Y      -0.276600
      6 C6           3.7730     5.2790     1.6390 ca         1 56Y      -0.114300
      7 C11          3.0050     4.4770     0.6200 c3         1 56Y       0.107300
      8 C14          5.1150     5.5480     1.4360 ca         1 56Y      -0.007000
      9 C26          3.1660    -1.5310     4.6140 c3         1 56Y       0.102200
     10 C27          2.1710    -2.5400     1.8110 c          1 56Y       0.659700
     11 C29          3.2870    -3.2280     1.0670 c3         1 56Y      -0.087100
     12 C7           2.3080     1.0950     2.1830 cd         1 56Y      -0.427900
     13 C8           2.1650     2.4940     1.7610 c          1 56Y       0.660700
     14 N6           2.7420     0.6660     3.4200 na         1 56Y       0.465900
     15 N10          3.0890     3.0530     0.9550 n          1 56Y      -0.161800
     16 O28          1.1540    -3.1470     2.0740 o          1 56Y      -0.543100
     17 O9           1.2110     3.1490     2.1380 o          1 56Y      -0.641100
     18 C9           3.1360     5.7470     2.7690 ca         1 56Y       0.036000
     19 C10          3.8500     6.4900     3.7110 ca         1 56Y      -0.243600
     20 C12          5.2040     6.7540     3.5030 ca         1 56Y      -0.085000
     21 C13          5.8280     6.2830     2.3660 ca         1 56Y      -0.080000
     22 O16          1.9930     6.7660     5.1030 o          1 56Y      -0.417100
     23 N17          3.8650     7.7140     5.8320 nz         1 56Y       0.200600
     24 C16          4.1790     2.2360     0.4130 c3         1 56Y       0.076300
     25 H1          -0.3610     0.8070    -0.6250 hc         1 56Y       0.011700
     26 H2          -0.3610     0.1380     1.0120 hc         1 56Y       0.011700
     27 H3          -0.3610    -0.9450    -0.3870 hc         1 56Y       0.011700
     28 H4           1.8900    -0.8850    -0.5110 hc         1 56Y       0.013200
     29 H5           1.8900     0.8840    -0.5110 hc         1 56Y       0.013200
     30 H6           1.9670     4.7880     0.6240 h1         1 56Y       0.050200
     31 H7           3.4270     4.6420    -0.3630 h1         1 56Y       0.050200
     32 H8           5.6100     5.1800     0.5450 ha         1 56Y       0.126000
     33 H9           4.1030    -2.0240     4.3860 hc         1 56Y       0.014367
     34 H10          3.2890    -0.9090     5.4920 hc         1 56Y       0.014367
     35 H11          2.4030    -2.2770     4.8040 hc         1 56Y       0.014367
     36 H12          3.5510    -4.1450     1.5800 hc         1 56Y       0.024700
     37 H13          4.1500    -2.5750     1.0270 hc         1 56Y       0.024700
     38 H14          2.9610    -3.4590     0.0600 hc         1 56Y       0.024700
     39 H15          3.0110     1.2620     4.1770 hn         1 56Y       0.101700
     40 H16          2.0680     5.6070     2.8860 ha         1 56Y       0.156000
     41 H17          5.7640     7.3290     4.2300 ha         1 56Y       0.081000
     42 H18          6.8790     6.4880     2.2020 ha         1 56Y       0.129000
     43 H19          4.2300     8.5380     5.3970 hn         1 56Y       0.246133
     44 H20          4.6190     7.1710     6.2050 hn         1 56Y       0.246133
     45 H21          4.6690     1.7070     1.2210 h1         1 56Y       0.017367
     46 H22          4.8960     2.8770    -0.0860 h1         1 56Y       0.017367
     47 H23          3.7770     1.5230    -0.2960 h1         1 56Y       0.017367
     48 C15          3.1730     6.9970     4.9250 c          1 56Y       0.352700
     49 H173         3.2620     7.9740     6.5870 hn         1 56Y       0.246133
@<TRIPOS>BOND
     1     1     2 1   
     2     1    25 1   
     3     1    26 1   
     4     1    27 1   
     5     2     3 1   
     6     2    28 1   
     7     2    29 1   
     8     3     4 1   
     9     3    12 2   
    10     4     5 2   
    11     4    10 1   
    12     5     9 1   
    13     5    14 1   
    14     6     7 1   
    15     6     8 ar  
    16     6    18 ar  
    17     7    15 1   
    18     7    30 1   
    19     7    31 1   
    20     8    21 ar  
    21     8    32 1   
    22     9    33 1   
    23     9    34 1   
    24     9    35 1   
    25    10    11 1   
    26    10    16 2   
    27    11    36 1   
    28    11    37 1   
    29    11    38 1   
    30    12    13 1   
    31    12    14 1   
    32    13    15 1   
    33    13    17 2   
    34    14    39 1   
    35    15    24 1   
    36    18    19 ar  
    37    18    40 1   
    38    19    20 ar  
    39    19    48 1   
    40    20    21 ar  
    41    20    41 1   
    42    21    42 1   
    43    22    48 2   
    44    23    43 1   
    45    23    44 1   
    46    23    48 1   
    47    23    49 1   
    48    24    45 1   
    49    24    46 1   
    50    24    47 1   
@<TRIPOS>SUBSTRUCTURE
     1 56Y         1 TEMP              0 ****  ****    0 ROOT
