@<TRIPOS>MOLECULE
56Z
   44    46     1     0     0
SMALL
bcc


@<TRIPOS>ATOM
      1 C1           0.0000     0.0000     0.0000 ca         1 56Z       0.186100
      2 N1           1.2780    -1.0860     7.0130 nc         1 56Z      -0.663000
      3 O1           1.2390    -1.6820    13.5280 o          1 56Z      -0.498800
      4 S1           0.0130    -1.4470     4.8990 ss         1 56Z      -0.233300
      5 C2           1.3890     0.0000     0.0000 ca         1 56Z      -0.185500
      6 N2           3.2210     0.1510     6.4390 nv         1 56Z      -0.562500
      7 O2           0.1300    -3.9210    13.6040 o          1 56Z      -0.498800
      8 S2           0.1450    -2.5450    13.2490 sy         1 56Z       0.931200
      9 C3           2.0800     0.0000     1.1920 ca         1 56Z      -0.019000
     10 N3          -0.7140    -2.3180     7.3890 nu         1 56Z      -0.239300
     11 O3           3.2390     0.4800     3.7410 o          1 56Z      -0.564100
     12 C4          -0.0150     0.0010     2.3970 ca         1 56Z      -0.019000
     13 N4          -1.1830    -1.8640    13.9670 nz         1 56Z      -0.134500
     14 C5          -0.6990     0.0000     1.2010 ca         1 56Z      -0.185500
     15 O6          -0.6770     0.0050    -1.1760 os         1 56Z      -0.298900
     16 C7          -2.1050     0.0040    -1.1030 c3         1 56Z       0.244700
     17 C10          1.3820     0.0010     2.4020 ca         1 56Z      -0.230600
     18 C11          2.1190     0.0010     3.6830 c          1 56Z       0.694300
     19 C12          1.5280    -0.5500     4.8350 cd         1 56Z      -0.243000
     20 C13          2.0320    -0.4870     6.1210 cc         1 56Z       0.554200
     21 C14          0.1840    -1.6500     6.5870 cd         1 56Z       0.504300
     22 C15         -0.5120    -2.3710     8.7710 ca         1 56Z       0.098600
     23 C16          0.1220    -1.3220     9.4230 ca         1 56Z      -0.150500
     24 C17          0.3200    -1.3760    10.7890 ca         1 56Z       0.039500
     25 C18         -0.1110    -2.4770    11.5070 ca         1 56Z      -0.263500
     26 C19         -0.7420    -3.5250    10.8620 ca         1 56Z       0.039500
     27 C20         -0.9480    -3.4720     9.4970 ca         1 56Z      -0.150500
     28 H2           1.9300    -0.0010    -0.9390 ha         1 56Z       0.125500
     29 HN2          4.0040    -0.3830     6.7630 hn         1 56Z       0.287300
     30 HN2A         3.3040     1.1410     6.3240 hn         1 56Z       0.287300
     31 H3           3.1630    -0.0000     1.1910 ha         1 56Z       0.119500
     32 HN3         -1.5360    -2.7240     6.9880 hn         1 56Z       0.301800
     33 H4          -0.5600     0.0020     3.3340 ha         1 56Z       0.119500
     34 HN4         -1.0780    -1.8950    14.9610 hn         1 56Z       0.311800
     35 HN4A        -1.2710    -0.9120    13.6700 hn         1 56Z       0.311800
     36 H5          -1.7820     0.0000     1.1970 ha         1 56Z       0.125500
     37 H7          -2.4390    -0.8820    -0.5760 h1         1 56Z       0.000367
     38 H7A         -2.4400     0.8870    -0.5730 h1         1 56Z       0.000367
     39 H7B         -2.5170     0.0050    -2.1050 h1         1 56Z       0.000367
     40 H16          0.4590    -0.4590     8.8610 ha         1 56Z       0.149500
     41 H17          0.8140    -0.5570    11.2970 ha         1 56Z       0.123000
     42 H19         -1.0830    -4.3830    11.4280 ha         1 56Z       0.123000
     43 H20         -1.4430    -4.2930     8.9910 ha         1 56Z       0.149500
     44 H43         -2.0010    -2.3830    13.7160 hn         1 56Z       0.311800
@<TRIPOS>BOND
     1     1     5 ar  
     2     1    14 ar  
     3     1    15 1   
     4     2    20 1   
     5     2    21 2   
     6     3     8 2   
     7     4    19 1   
     8     4    21 1   
     9     5     9 ar  
    10     5    28 1   
    11     6    20 1   
    12     6    29 1   
    13     6    30 1   
    14     7     8 2   
    15     8    13 1   
    16     8    25 1   
    17     9    17 ar  
    18     9    31 1   
    19    10    21 1   
    20    10    22 1   
    21    10    32 1   
    22    11    18 2   
    23    12    14 ar  
    24    12    17 ar  
    25    12    33 1   
    26    13    34 1   
    27    13    35 1   
    28    13    44 1   
    29    14    36 1   
    30    15    16 1   
    31    16    37 1   
    32    16    38 1   
    33    16    39 1   
    34    17    18 1   
    35    18    19 1   
    36    19    20 2   
    37    22    23 ar  
    38    22    27 ar  
    39    23    24 ar  
    40    23    40 1   
    41    24    25 ar  
    42    24    41 1   
    43    25    26 ar  
    44    26    27 ar  
    45    26    42 1   
    46    27    43 1   
@<TRIPOS>SUBSTRUCTURE
     1 56Z         1 TEMP              0 ****  ****    0 ROOT
