@<TRIPOS>MOLECULE
molecule
   44    46     1     0     0
SMALL
bcc


@<TRIPOS>ATOM
      1 C1           0.0000     0.0000     0.0000 ca         1 56Z       0.173100
      2 N1           1.2780    -1.0860     7.0130 nc         1 56Z      -0.790000
      3 O1           1.2390    -1.6820    13.5280 o          1 56Z      -0.523300
      4 S1           0.0130    -1.4470     4.8990 ss         1 56Z      -0.118300
      5 C2           1.3890     0.0000     0.0000 ca         1 56Z      -0.196500
      6 N2           3.2210     0.1510     6.4390 nv         1 56Z      -1.028500
      7 O2           0.1300    -3.9210    13.6040 o          1 56Z      -0.523300
      8 S2           0.1450    -2.5450    13.2490 sy         1 56Z       1.222200
      9 C3           2.0800     0.0000     1.1920 ca         1 56Z      -0.051000
     10 N3          -0.7140    -2.3180     7.3890 nu         1 56Z      -0.735300
     11 O3           3.2390     0.4800     3.7410 o          1 56Z      -0.522100
     12 C4          -0.0150     0.0010     2.3970 ca         1 56Z      -0.051000
     13 N4          -1.1830    -1.8640    13.9670 nz         1 56Z      -0.805500
     14 C5          -0.6990     0.0000     1.2010 ca         1 56Z      -0.196500
     15 O6          -0.6770     0.0050    -1.1760 os         1 56Z      -0.317900
     16 C7          -2.1050     0.0040    -1.1030 c3         1 56Z       0.126700
     17 C10          1.3820     0.0010     2.4020 ca         1 56Z      -0.214600
     18 C11          2.1190     0.0010     3.6830 c          1 56Z       0.630300
     19 C12          1.5280    -0.5500     4.8350 cd         1 56Z      -0.283000
     20 C13          2.0320    -0.4870     6.1210 cc         1 56Z       0.739200
     21 C14          0.1840    -1.6500     6.5870 cd         1 56Z       0.669300
     22 C15         -0.5120    -2.3710     8.7710 ca         1 56Z       0.264600
     23 C16          0.1220    -1.3220     9.4230 ca         1 56Z      -0.163000
     24 C17          0.3200    -1.3760    10.7890 ca         1 56Z      -0.007000
     25 C18         -0.1110    -2.4770    11.5070 ca         1 56Z      -0.374500
     26 C19         -0.7420    -3.5250    10.8620 ca         1 56Z      -0.007000
     27 C20         -0.9480    -3.4720     9.4970 ca         1 56Z      -0.163000
     28 H2           1.9300    -0.0010    -0.9390 ha         1 56Z       0.148500
     29 HN2          4.0040    -0.3830     6.7630 hn         1 56Z       0.454800
     30 HN2A         3.3040     1.1410     6.3240 hn         1 56Z       0.454800
     31 H3           3.1630    -0.0000     1.1910 ha         1 56Z       0.143500
     32 HN3         -1.5360    -2.7240     6.9880 hn         1 56Z       0.477800
     33 H4          -0.5600     0.0020     3.3340 ha         1 56Z       0.143500
     34 HN4         -1.0780    -1.8950    14.9610 hn         1 56Z       0.489800
     35 HN4A        -1.2710    -0.9120    13.6700 hn         1 56Z       0.489800
     36 H5          -1.7820     0.0000     1.1970 ha         1 56Z       0.148500
     37 H7          -2.4390    -0.8820    -0.5760 h1         1 56Z       0.045700
     38 H7A         -2.4400     0.8870    -0.5730 h1         1 56Z       0.045700
     39 H7B         -2.5170     0.0050    -2.1050 h1         1 56Z       0.045700
     40 H16          0.4590    -0.4590     8.8610 ha         1 56Z       0.180000
     41 H17          0.8140    -0.5570    11.2970 ha         1 56Z       0.155500
     42 H19         -1.0830    -4.3830    11.4280 ha         1 56Z       0.155500
     43 H20         -1.4430    -4.2930     8.9910 ha         1 56Z       0.180000
     44 H43         -2.0010    -2.3830    13.7160 hn         1 56Z       0.489800
@<TRIPOS>BOND
     1     1     5 ar
     2     1    14 ar
     3     1    15 1
     4     2    20 1
     5     2    21 2
     6     3     8 2
     7     4    19 1
     8     4    21 1
     9     5     9 ar
    10     6    20 1
    11     7     8 2
    12     8    13 1
    13     8    25 1
    14     9    17 ar
    15    10    21 1
    16    10    22 1
    17    11    18 2
    18    12    14 ar
    19    12    17 ar
    20    15    16 1
    21    17    18 1
    22    18    19 1
    23    19    20 2
    24    22    23 ar
    25    22    27 ar
    26    23    24 ar
    27    24    25 ar
    28    25    26 ar
    29    26    27 ar
    30     5    28 1
    31     6    29 1
    32     6    30 1
    33     9    31 1
    34    10    32 1
    35    12    33 1
    36    13    34 1
    37    13    35 1
    38    14    36 1
    39    16    37 1
    40    16    38 1
    41    16    39 1
    42    23    40 1
    43    24    41 1
    44    26    42 1
    45    27    43 1
    46    44    13 1
@<TRIPOS>SUBSTRUCTURE
     1 56Z         1 TEMP              0 ****  ****    0 ROOT
