@<TRIPOS>MOLECULE
570
   70    68     1     0     0
SMALL
bcc


@<TRIPOS>ATOM
      1 N           0.7380   -0.8350    0.3070 n3        1 570     -0.261000
      2 CA          1.7000   -1.3580    1.1550 c2        1 570      0.021000
      3 CB          2.2020   -0.7450    2.2550 c2        1 570     -0.262000
      4 CG          1.8800    0.5760    2.7540 ca        1 570     -0.006000
      5 CD1         1.7150    0.7540    4.1400 ca        1 570     -0.123500
      6 CD2         1.7700    1.6890    1.9070 ca        1 570     -0.123500
      7 CE1         1.4240    2.0040    4.6730 ca        1 570     -0.129500
      8 CE2         1.4760    2.9510    2.4200 ca        1 570     -0.129500
      9 CZ          1.3020    3.0910    3.7980 ca        1 570      0.030000
     10 OH          0.9750    4.3180    4.4110 os        1 570     -0.147000
     11 C1A         0.2700   -1.4830   -0.8200 c2        1 570      0.224000
     12 C1F        -0.7960   -0.9990   -1.5750 c2        1 570     -0.317000
     13 C1E        -1.1690   -1.7640   -2.7600 c2        1 570     -0.077000
     14 C1D        -2.4210   -2.0100   -3.1510 c2        1 570     -0.258000
     15 C1C         2.2320   -2.8580   -1.5000 c2        1 570     -0.125000
     16 C1B         0.9240   -2.7260   -1.2580 c2        1 570     -0.245000
     17 C1H        -2.3960    0.7340   -2.3610 c2        1 570     -0.172000
     18 C1I        -4.2090    1.6080    2.6340 c1        1 570      0.147500
     19 C1J        -2.9340    1.3690    2.7030 c2        1 570     -0.554500
     20 C1K        -5.0230    1.5130   -0.0590 c1        1 570     -0.199000
     21 C1L        -4.3650    1.3890   -1.0540 c1        1 570     -0.142000
     22 C1M        -3.6240    1.2580   -2.2370 c2        1 570     -0.032000
     23 C1G        -1.5360    0.2160   -1.2720 c2        1 570      0.323000
     24 O1G        -1.4360    0.8500   -0.1990 o         1 570     -0.393000
     25 O3F         2.0420    9.3930    2.4280 os        1 570     -0.124000
     26 C3G         2.0640    9.8500    3.7620 c2        1 570      0.009000
     27 N3H         1.5770    8.9420    4.6120 n2        1 570     -0.135000
     28 C3C         1.2130    7.8300    3.8310 c2        1 570     -0.101000
     29 C3D         1.4960    8.1050    2.4910 c2        1 570     -0.015000
     30 C3E         1.3550    7.3820    1.2280 c3        1 570     -0.165000
     31 C3I         2.5930   11.1860    4.0040 c2        1 570      0.054000
     32 C3N         3.0650   11.9390    2.9970 c2        1 570     -0.201000
     33 C3M         4.2060   15.7770    6.0670 c1        1 570      0.147500
     34 C3L         4.0270   14.9480    5.0770 c2        1 570     -0.554500
     35 C3K         2.1660   11.0430    6.4760 c1        1 570      0.269000
     36 C3J         2.5830   11.6490    5.3790 c2        1 570     -0.472000
     37 C3A         1.0320    5.3980    3.6390 c1        1 570      0.000000
     38 C3B         0.6070    6.6120    4.4110 c3        1 570     -0.170000
     39 C           2.8520   -4.1730   -1.9500 c2        1 570      0.341000
     40 HN          0.2900    0.0200    0.5810 hn        1 570      0.258000
     41 HA          2.0610   -2.3770    0.8880 h4        1 570      0.182000
     42 HB1         2.9310   -1.3100    2.8600 ha        1 570      0.143000
     43 HB2         2.9480   -2.0310   -1.3740 ha        1 570      0.109000
     44 HD1         1.8150   -0.1130    4.8110 ha        1 570      0.142500
     45 HD2         1.9340    1.5780    0.8240 ha        1 570      0.142500
     46 HE1         1.2890    2.1470    5.7540 ha        1 570      0.152500
     47 HE2         1.3860    3.8290    1.7610 ha        1 570      0.152500
     48 H1E        -0.3180   -2.1800   -3.3330 ha        1 570      0.142000
     49 H1D        -2.6370   -2.6020   -4.0490 ha        1 570      0.106500
     50 H1C        -3.3020   -1.6510   -2.6050 ha        1 570      0.106500
     51 H1B         0.2410   -3.5760   -1.4350 ha        1 570      0.173000
     52 H1I        -1.9330    0.6630   -3.3620 ha        1 570      0.146000
     53 H1J        -2.3370    1.2960    3.6230 ha        1 570      0.202500
     54 H1K        -2.3220    1.2070    1.7880 ha        1 570      0.202500
     55 H1L        -5.6000    1.6230    0.8290 ha        1 570      0.244000
     56 H1M        -4.1510    1.6200   -3.1430 ha        1 570      0.128000
     57 H3E1        0.5630    7.8590    0.5970 hc        1 570      0.111000
     58 H3E2        1.0700    6.3180    1.4440 hc        1 570      0.111000
     59 H3E3        2.3180    7.3980    0.6600 hc        1 570      0.111000
     60 H3N         3.0720   11.5850    1.9580 ha        1 570      0.126000
     61 H3M         3.4680   12.9460    3.1660 ha        1 570      0.126000
     62 H3L         4.7820   14.2110    4.7550 ha        1 570      0.202500
     63 H3K         3.1110   14.9200    4.4640 ha        1 570      0.202500
     64 H3J         2.9920   12.6770    5.5280 ha        1 570      0.191000
     65 H3A1       -0.7430    4.6240    2.1360 ha        1 570      0.003500
     66 H3A2       -1.0650    5.1780    2.3610 ha        1 570      0.003500
     67 H3B1        0.8420    6.5360    5.5090 hc        1 570      0.124000
     68 H3B2       -0.5160    6.6820    4.3210 hc        1 570      0.124000
     69 O2          4.0880   -4.3080   -1.7350 o         1 570     -0.551000
     70 O1          2.1090   -5.0350   -2.4920 o         1 570     -0.551000
@<TRIPOS>BOND
     1    1    2 1   
     2    1   11 1   
     3    1   40 1   
     4    2    3 1   
     5    2   41 1   
     6    3    4 1   
     7    3   42 1   
     8    4    5 1   
     9    4    6 1   
    10    5    7 1   
    11    5   44 1   
    12    6    8 1   
    13    6   45 1   
    14    7    9 1   
    15    7   46 1   
    16    8    9 1   
    17    8   47 1   
    18    9   10 1   
    19   10   37 1   
    20   11   12 1   
    21   11   16 1   
    22   12   13 1   
    23   12   23 1   
    24   13   14 1   
    25   13   48 1   
    26   14   49 1   
    27   14   50 1   
    28   15   16 1   
    29   15   39 1   
    30   15   43 1   
    31   16   51 1   
    32   17   22 1   
    33   17   23 1   
    34   17   52 1   
    35   18   19 1   
    36   19   53 1   
    37   19   54 1   
    38   20   21 1   
    39   20   55 1   
    40   21   22 1   
    41   22   56 1   
    42   23   24 1   
    43   25   26 1   
    44   25   29 1   
    45   26   27 1   
    46   26   31 1   
    47   27   28 1   
    48   28   29 1   
    49   28   38 1   
    50   29   30 1   
    51   30   57 1   
    52   30   58 1   
    53   30   59 1   
    54   31   32 1   
    55   31   36 1   
    56   32   60 1   
    57   32   61 1   
    58   33   34 1   
    59   34   62 1   
    60   34   63 1   
    61   35   36 1   
    62   36   64 1   
    63   37   38 1   
    64   38   67 1   
    65   38   68 1   
    66   39   69 1   
    67   39   70 1   
    68   65   66 1   
@<TRIPOS>SUBSTRUCTURE
     1 570         1 TEMP              0 ****  ****    0 ROOT
