@<TRIPOS>MOLECULE
571
   61    65     1     0     0
SMALL
bcc


@<TRIPOS>ATOM
      1 N1           0.0000     0.0000     0.0000 n          1 571       0.149600
      2 N2           1.3210    -0.0010     3.4480 na         1 571       0.671400
      3 C3           3.0730    -0.0000     2.1030 cc         1 571       0.492200
      4 N4           2.7160    -0.0010     3.3640 nd         1 571      -0.640800
      5 N5           4.3790     0.0020     1.6100 ns         1 571      -0.072400
      6 C6           5.4220     0.0030     2.4650 c          1 571       0.581700
      7 C7           6.8020     0.0040     1.9450 ca         1 571      -0.226600
      8 O8           5.2240     0.0010     3.6650 o          1 571      -0.552100
      9 C9           7.8840     0.0040     2.8290 ca         1 571      -0.017000
     10 C10          9.1700     0.0060     2.3410 ca         1 571      -0.160500
     11 C11          8.3190    -0.0010     0.0830 ca         1 571      -0.160500
     12 C12          7.0300    -0.0020     0.5660 ca         1 571      -0.017000
     13 C13          0.7960    -0.0010     2.2240 cd         1 571      -0.258600
     14 C14          1.8420     0.0000     1.3070 cc         1 571      -0.516200
     15 C15          1.3120     0.0000     0.0000 ce         1 571       0.325100
     16 C16         -0.4660    -0.0010     1.3940 c3         1 571       0.076300
     17 N17         10.6960     0.0080     0.4760 nh         1 571      -0.350000
     18 C18         10.7050     0.0080    -0.9940 c3         1 571       0.134300
     19 C19         12.1490     0.0900    -1.4930 c3         1 571       0.153300
     20 N20         12.9130    -1.0490    -0.9640 n3         1 571      -0.550600
     21 C21         12.9030    -1.0500     0.5050 c3         1 571       0.153300
     22 C22         11.4600    -1.1310     1.0040 c3         1 571       0.134300
     23 C23         14.2870    -1.0470    -1.4830 c3         1 571       0.190100
     24 C24          9.3950     0.0060     0.9670 ca         1 571       0.078600
     25 C25         -0.7820     0.0040    -1.0860 c          1 571       0.523100
     26 O26         -0.2870    -0.0880    -2.1910 o          1 571      -0.471100
     27 C27         -2.6270     1.5290    -0.5120 ca         1 571      -0.175300
     28 C29         -2.5760     2.5620    -1.4290 ca         1 571      -0.086500
     29 C28         -3.0050     1.7820     0.7930 ca         1 571      -0.086500
     30 C33         -2.9030     3.8480    -1.0410 ca         1 571      -0.086000
     31 C31         -3.3330     3.0670     1.1820 ca         1 571      -0.086000
     32 C20         -2.2760     0.1260    -0.9370 c3         1 571       0.204400
     33 C35         -3.2810     4.1000     0.2650 ca         1 571      -0.065000
     34 O34         -2.9050    -0.1640    -2.1880 oh         1 571      -0.532800
     35 H15          1.8530    -0.4830    -0.8040 h4         1 571       0.038800
     36 H161        -1.0470     0.8900     1.5960 h1         1 571       0.086700
     37 H162        -1.0470    -0.8920     1.5950 h1         1 571       0.086700
     38 H2           0.7950    -0.0020     4.3000 hn         1 571       0.158700
     39 H5           4.5420     0.0040     0.6230 hn         1 571       0.190500
     40 H9           7.7100     0.0040     3.8980 ha         1 571       0.106000
     41 H12          6.1940    -0.0080    -0.1230 ha         1 571       0.106000
     42 H10         10.0090     0.0090     3.0270 ha         1 571       0.131500
     43 H11          8.4960    -0.0030    -0.9860 ha         1 571       0.131500
     44 H181        10.1490     0.8650    -1.3570 h1         1 571       0.025700
     45 H182        10.2490    -0.9050    -1.3570 h1         1 571       0.025700
     46 H221        11.4510    -1.1000     2.0870 h1         1 571       0.025700
     47 H222        11.0120    -2.0560     0.6600 h1         1 571       0.025700
     48 H191        12.5970     1.0150    -1.1490 h1         1 571       0.020450
     49 H192        12.1590     0.0580    -2.5760 h1         1 571       0.020450
     50 H211        13.4590    -1.9060     0.8680 h1         1 571       0.020450
     51 H212        13.3590    -0.1360     0.8690 h1         1 571       0.020450
     52 H231        14.2640    -1.0780    -2.5660 h1         1 571       0.005033
     53 H232        14.8160    -1.9150    -1.1080 h1         1 571       0.005033
     54 H233        14.7950    -0.1470    -1.1590 h1         1 571       0.005033
     55 H20         -2.6230    -0.5760    -0.1880 h1         1 571       0.015700
     56 H28         -3.0460     0.9720     1.5110 ha         1 571       0.113000
     57 H29         -2.2790     2.3640    -2.4520 ha         1 571       0.113000
     58 H31         -3.6290     3.2650     2.2050 ha         1 571       0.118000
     59 H33         -2.8630     4.6570    -1.7590 ha         1 571       0.118000
     60 H35         -3.5380     5.1080     0.5690 ha         1 571       0.119000
     61 H34         -3.4830    -0.9020    -2.0860 ho         1 571       0.409000
@<TRIPOS>BOND
     1     1    15 2   
     2     1    16 1   
     3     1    25 1   
     4     2     4 1   
     5     2    13 1   
     6     2    38 1   
     7     3     4 2   
     8     3     5 1   
     9     3    14 1   
    10     5     6 1   
    11     5    39 1   
    12     6     7 1   
    13     6     8 2   
    14     7     9 ar  
    15     7    12 ar  
    16     9    10 ar  
    17     9    40 1   
    18    10    24 ar  
    19    10    42 1   
    20    11    12 ar  
    21    11    24 ar  
    22    11    43 1   
    23    12    41 1   
    24    13    14 2   
    25    13    16 1   
    26    14    15 1   
    27    15    35 1   
    28    16    36 1   
    29    16    37 1   
    30    17    18 1   
    31    17    22 1   
    32    17    24 1   
    33    18    19 1   
    34    18    44 1   
    35    18    45 1   
    36    19    20 1   
    37    19    48 1   
    38    19    49 1   
    39    20    21 1   
    40    20    23 1   
    41    21    22 1   
    42    21    50 1   
    43    21    51 1   
    44    22    46 1   
    45    22    47 1   
    46    23    52 1   
    47    23    53 1   
    48    23    54 1   
    49    25    26 2   
    50    25    32 1   
    51    27    28 ar  
    52    27    29 ar  
    53    27    32 1   
    54    28    30 ar  
    55    28    57 1   
    56    29    31 ar  
    57    29    56 1   
    58    30    33 ar  
    59    30    59 1   
    60    31    33 ar  
    61    31    58 1   
    62    32    34 1   
    63    32    55 1   
    64    33    60 1   
    65    34    61 1   
@<TRIPOS>SUBSTRUCTURE
     1 571         1 TEMP              0 ****  ****    0 ROOT
