@<TRIPOS>MOLECULE
572
   39    40     1     0     0
SMALL
bcc


@<TRIPOS>ATOM
      1 O30          0.0000     0.0000     0.0000 oh         1 572      -0.582800
      2 C14          1.4290     0.0000     0.0000 c3         1 572       0.187100
      3 C7           1.9310     0.0000     1.4210 ca         1 572       0.609300
      4 N4           2.1390     1.1510     2.0270 nb         1 572      -0.642000
      5 C2           2.5870     1.1880     3.2770 ca         1 572       0.509200
      6 C5           2.8230    -0.0140     3.9460 ca         1 572      -0.357600
      7 C6           2.5860    -1.1970     3.2720 ca         1 572       0.456200
      8 N3           2.1440    -1.1510     2.0230 nb         1 572      -0.624000
      9 N1           2.8100     2.4010     3.9100 nh         1 572      -0.459300
     10 C19          2.4680     3.4490     2.9440 c3         1 572       0.117300
     11 C15          2.6680     4.8250     3.5870 c3         1 572       0.233300
     12 N17          4.0540     4.9130     4.0720 n3         1 572      -0.552500
     13 S28          5.0020     6.2230     3.7190 s6         1 572       1.143800
     14 O25          4.4390     6.8030     2.5500 o          1 572      -0.584800
     15 N22          4.7810     7.3350     4.9240 n3         1 572      -0.546500
     16 C13          5.6400     7.3120     6.1100 c3         1 572       0.264600
     17 C11          3.7250     8.3440     4.8050 c3         1 572       0.264600
     18 O12          6.3440     5.7750     3.8480 o          1 572      -0.584800
     19 C16          4.5730     3.7960     4.8780 c3         1 572       0.233300
     20 C18          4.2520     2.4870     4.1600 c3         1 572       0.117300
     21 H30         -0.3140    -0.1450    -0.8770 ho         1 572       0.393000
     22 H141         1.7900    -0.8850    -0.5110 h1         1 572       0.000700
     23 H142         1.7900     0.8850    -0.5110 h1         1 572       0.000700
     24 H5           3.1870    -0.0200     4.9670 ha         1 572       0.132000
     25 H6           2.7580    -2.1490     3.7590 h4         1 572      -0.014900
     26 H191         3.1110     3.3610     2.0760 h1         1 572       0.033200
     27 H192         1.4330     3.3390     2.6450 h1         1 572       0.033200
     28 H151         2.4910     5.6000     2.8500 h1         1 572       0.029700
     29 H152         1.9840     4.9410     4.4180 h1         1 572       0.029700
     30 H131         6.5080     6.6950     5.9150 h1         1 572       0.006367
     31 H132         5.0880     6.9030     6.9480 h1         1 572       0.006367
     32 H133         5.9580     8.3200     6.3450 h1         1 572       0.006367
     33 H111         2.8070     7.9580     5.2320 h1         1 572       0.006367
     34 H112         4.0200     9.2410     5.3370 h1         1 572       0.006367
     35 H113         3.5660     8.5800     3.7600 h1         1 572       0.006367
     36 H161         4.0990     3.8000     5.8520 h1         1 572       0.029700
     37 H162         5.6460     3.8950     4.9890 h1         1 572       0.029700
     38 H181         4.7820     2.4560     3.2160 h1         1 572       0.033200
     39 H182         4.5590     1.6530     4.7790 h1         1 572       0.033200
@<TRIPOS>BOND
     1     1     2 1   
     2     1    21 1   
     3     2     3 1   
     4     2    22 1   
     5     2    23 1   
     6     3     4 ar  
     7     3     8 ar  
     8     4     5 ar  
     9     5     6 ar  
    10     5     9 1   
    11     6     7 ar  
    12     6    24 1   
    13     7     8 ar  
    14     7    25 1   
    15     9    10 1   
    16     9    20 1   
    17    10    11 1   
    18    10    26 1   
    19    10    27 1   
    20    11    12 1   
    21    11    28 1   
    22    11    29 1   
    23    12    13 1   
    24    12    19 1   
    25    13    14 2   
    26    13    15 1   
    27    13    18 2   
    28    15    16 1   
    29    15    17 1   
    30    16    30 1   
    31    16    31 1   
    32    16    32 1   
    33    17    33 1   
    34    17    34 1   
    35    17    35 1   
    36    19    20 1   
    37    19    36 1   
    38    19    37 1   
    39    20    38 1   
    40    20    39 1   
@<TRIPOS>SUBSTRUCTURE
     1 572         1 TEMP              0 ****  ****    0 ROOT
