@<TRIPOS>MOLECULE
573
   42    44     1     0     0
SMALL
bcc


@<TRIPOS>ATOM
      1 C1          0.5760    0.5790    0.6120 c3        1 573     -0.137100
      2 C2          1.4900    0.7690   -0.5810 c3        1 573      0.104100
      3 C4          1.1190    1.9960   -1.4110 c3        1 573      0.095400
      4 O5          1.0960    3.2230   -0.6400 os        1 573     -0.199100
      5 N6          2.2860    3.6430   -0.1220 n4        1 573     -0.448300
      6 C7          2.0570    5.0460    0.4990 c         1 573      0.632300
      7 O8          1.7940    4.9970    1.6950 o         1 573     -0.468100
      8 C9          2.2270    6.1370   -0.3800 cc        1 573     -0.240100
      9 C10         2.0370    7.5370   -0.2290 cd        1 573      0.367800
     10 C11         2.3770    8.1240   -1.5360 ca        1 573     -0.298100
     11 C12         2.4050    9.4220   -2.0680 ca        1 573      0.480200
     12 N13         2.7690    9.6500   -3.3420 nb        1 573     -0.640000
     13 C14         3.1160    8.6130   -4.1300 ca        1 573      0.441200
     14 C15         3.1260    7.2530   -3.7080 ca        1 573      0.008600
     15 C16         2.7430    7.0350   -2.3760 ca        1 573      0.132100
     16 O17         2.6620    5.8250   -1.7110 os        1 573     -0.205200
     17 N19         1.6550    8.2840    0.8190 nh        1 573     -0.571400
     18 C20         1.2470    7.8370    2.1020 ca        1 573      0.037600
     19 C21         2.1700    7.8060    3.1660 ca        1 573     -0.084000
     20 C22         1.7560    7.4580    4.4480 ca        1 573     -0.101000
     21 C23         0.4210    7.1340    4.7020 ca        1 573      0.067900
     22 C24        -0.5100    7.1590    3.6700 ca        1 573     -0.123000
     23 C25        -0.1120    7.5080    2.3660 ca        1 573      0.143900
     24 O28         2.8400    0.9700   -0.1640 oh        1 573     -0.656800
     25 F18         3.4810    6.2570   -4.5390 f         1 573     -0.098900
     26 F26        -1.0330    7.5320    1.3760 f         1 573     -0.122900
     27 I27        -0.1610    6.6330    6.5680 i         1 573     -0.078900
     28 H1          0.5900    1.4840    1.2660 hc        1 573      0.062700
     29 H2          0.9080   -0.3010    1.2150 hc        1 573      0.062700
     30 H3         -0.4710    0.4010    0.2670 hc        1 573      0.062700
     31 H4          1.4380   -0.1310   -1.2590 h1        1 573      0.081700
     32 H5          1.8050    2.1140   -2.2900 h1        1 573      0.108200
     33 H6          0.0430    1.9440   -1.7420 h1        1 573      0.108200
     34 H7          3.0050    3.6860   -0.8620 hn        1 573      0.466800
     35 H8          2.1300   10.3130   -1.4730 h4        1 573      0.046100
     36 H9          3.4060    8.8660   -5.1690 h4        1 573      0.068100
     37 H10         1.5660    9.2720    0.6690 hn        1 573      0.473800
     38 H11         3.2270    8.0640    2.9910 ha        1 573      0.157000
     39 H12         2.4990    7.4440    5.2630 ha        1 573      0.168000
     40 H13        -1.5720    6.9130    3.8450 ha        1 573      0.179000
     41 H14         3.1390    0.1530    0.2560 ho        1 573      0.446000
     42 H62         2.5900    2.9780    0.6180 hn        1 573      0.466800
@<TRIPOS>BOND
     1    1    2 1
     2    1   28 1
     3    1   29 1
     4    1   30 1
     5    2    3 1
     6    2   24 1
     7    2   31 1
     8    3    4 1
     9    3   32 1
    10    3   33 1
    11    4    5 1
    12    5    6 1
    13    5   34 1
    14    5   42 1
    15    6    7 2
    16    6    8 1
    17    8    9 2
    18    8   16 1
    19    9   10 1
    20    9   17 1
    21   10   11 ar
    22   10   15 ar
    23   11   12 ar
    24   11   35 1
    25   12   13 ar
    26   13   14 ar
    27   13   36 1
    28   14   15 ar
    29   14   25 1
    30   15   16 1
    31   17   18 1
    32   17   37 1
    33   18   19 ar
    34   18   23 ar
    35   19   20 ar
    36   19   38 1
    37   20   21 ar
    38   20   39 1
    39   21   22 ar
    40   21   27 1
    41   22   23 ar
    42   22   40 1
    43   23   26 1
    44   24   41 1
@<TRIPOS>SUBSTRUCTURE
     1 573         1 TEMP              0 ****  ****    0 ROOT
