@<TRIPOS>MOLECULE
molecule
   47    50     1     0     0
SMALL
bcc


@<TRIPOS>ATOM
      1 C1           0.0000     0.0000     0.0000 ca         1 575      -0.081500
      2 C2           1.3810     0.0000     0.0000 ca         1 575      -0.170500
      3 C3           2.0740     0.0000     1.2050 ca         1 575       0.136600
      4 C4           1.3740    -0.0010     2.4050 ca         1 575      -0.170500
      5 C5          -0.0060    -0.0020     2.3980 ca         1 575      -0.081500
      6 C6          -0.6930    -0.0010     1.1970 ca         1 575      -0.098300
      7 C7          -2.2000    -0.0020     1.1930 c3         1 575       0.201100
      8 N1          -2.6890    -1.3880     1.1920 n3         1 575      -0.700600
      9 C8          -4.1470    -1.4340     0.9470 c3         1 575       0.143800
     10 C9          -4.7030    -2.6160     1.7630 c3         1 575      -0.087900
     11 C10         -3.4810    -3.2100     2.5000 c3         1 575      -0.087900
     12 C11         -2.4790    -2.0280     2.5150 c3         1 575       0.143800
     13 N2           3.4710    -0.0000     1.2070 nu         1 575      -0.611400
     14 C12          4.1480    -0.0010     2.3870 c2         1 575       0.206000
     15 C13          5.5210    -0.1080     2.3930 cc         1 575      -0.327400
     16 C14          6.2680    -0.2560     3.6590 ca         1 575       0.044200
     17 C15          5.6220    -0.2950     4.8890 ca         1 575      -0.140000
     18 C16          6.3640    -0.4350     6.0460 ca         1 575       0.025100
     19 C17          7.7470    -0.5380     5.9870 ca         1 575      -0.140000
     20 C18          8.4050    -0.5020     4.7770 ca         1 575      -0.042000
     21 C19          7.6740    -0.3610     3.5970 ca         1 575      -0.165600
     22 C20          8.3360    -0.3180     2.2870 c          1 575       0.722100
     23 O1           9.5470    -0.4090     2.2260 o          1 575      -0.616500
     24 N3           7.6260    -0.1830     1.1550 ns         1 575      -0.554500
     25 C21          6.2870    -0.0840     1.1410 c          1 575       0.748700
     26 O2           5.7020     0.0320     0.0790 o          1 575      -0.674500
     27 Br1          5.4900    -0.4880     7.7220 br         1 575      -0.089100
     28 H1          -0.5410     0.0010    -0.9390 ha         1 575       0.138500
     29 H2           1.9230     0.0010    -0.9380 ha         1 575       0.136000
     30 H4           1.9120    -0.0020     3.3460 ha         1 575       0.136000
     31 H5          -0.5510    -0.0030     3.3330 ha         1 575       0.138500
     32 H7          -2.5640     0.5090     2.0770 h1         1 575       0.041700
     33 H7A         -2.5590     0.5090     0.3080 h1         1 575       0.041700
     34 H8          -4.3390    -1.5910    -0.1070 h1         1 575       0.042200
     35 H8A         -4.6050    -0.5100     1.2790 h1         1 575       0.042200
     36 H9          -5.1370    -3.3560     1.1010 hc         1 575       0.049950
     37 H9A         -5.4370    -2.2660     2.4780 hc         1 575       0.049950
     38 H10         -3.0730    -4.0490     1.9480 hc         1 575       0.049950
     39 H10A        -3.7470    -3.4980     3.5090 hc         1 575       0.049950
     40 H11         -2.7180    -1.3370     3.3140 h1         1 575       0.042200
     41 H11A        -1.4630    -2.3910     2.6050 h1         1 575       0.042200
     42 HN2          3.9730     0.0360     0.3420 hn         1 575       0.503800
     43 H12          3.6110     0.1260     3.3190 h4         1 575       0.165000
     44 H15          4.5430    -0.2140     4.9400 ha         1 575       0.139000
     45 H17          8.3160    -0.6480     6.9020 ha         1 575       0.150000
     46 H18          9.4850    -0.5840     4.7410 ha         1 575       0.163000
     47 HN3          8.1160    -0.1630     0.2820 hn         1 575       0.347500
@<TRIPOS>BOND
     1     1     2 ar  
     2     1     6 ar  
     3     2     3 ar  
     4     3     4 ar  
     5     3    13 1   
     6     4     5 ar  
     7     5     6 ar  
     8     6     7 1   
     9     7     8 1   
    10     8     9 1   
    11     8    12 1   
    12     9    10 1   
    13    10    11 1   
    14    11    12 1   
    15    13    14 1   
    16    14    15 2   
    17    15    16 1   
    18    15    25 1   
    19    16    17 ar  
    20    16    21 ar  
    21    17    18 ar  
    22    18    19 ar  
    23    18    27 1   
    24    19    20 ar  
    25    20    21 ar  
    26    21    22 1   
    27    22    23 2   
    28    22    24 1   
    29    24    25 1   
    30    25    26 2   
    31     1    28 1   
    32     2    29 1   
    33     4    30 1   
    34     5    31 1   
    35     7    32 1   
    36     7    33 1   
    37     9    34 1   
    38     9    35 1   
    39    10    36 1   
    40    10    37 1   
    41    11    38 1   
    42    11    39 1   
    43    12    40 1   
    44    12    41 1   
    45    13    42 1   
    46    14    43 1   
    47    17    44 1   
    48    19    45 1   
    49    20    46 1   
    50    24    47 1   
@<TRIPOS>SUBSTRUCTURE
     1 575         1 TEMP              0 ****  ****    0 ROOT
