@<TRIPOS>MOLECULE
575
   47    50     1     0     0
SMALL
bcc


@<TRIPOS>ATOM
      1 C1           0.0000     0.0000     0.0000 ca         1 575      -0.054500
      2 C2           1.3810     0.0000     0.0000 ca         1 575      -0.138500
      3 C3           2.0740     0.0000     1.2050 ca         1 575      -0.025400
      4 C4           1.3740    -0.0010     2.4050 ca         1 575      -0.138500
      5 C5          -0.0060    -0.0020     2.3980 ca         1 575      -0.054500
      6 C6          -0.6930    -0.0010     1.1970 ca         1 575      -0.105300
      7 C7          -2.2000    -0.0020     1.1930 c3         1 575       0.213100
      8 N1          -2.6890    -1.3880     1.1920 n3         1 575      -0.539600
      9 C8          -4.1470    -1.4340     0.9470 c3         1 575       0.147300
     10 C9          -4.7030    -2.6160     1.7630 c3         1 575      -0.028900
     11 C10         -3.4810    -3.2100     2.5000 c3         1 575      -0.028900
     12 C11         -2.4790    -2.0280     2.5150 c3         1 575       0.147300
     13 N2           3.4710    -0.0000     1.2070 nu         1 575      -0.147400
     14 C12          4.1480    -0.0010     2.3870 c2         1 575       0.061000
     15 C13          5.5210    -0.1080     2.3930 cc         1 575      -0.356400
     16 C14          6.2680    -0.2560     3.6590 ca         1 575       0.067200
     17 C15          5.6220    -0.2950     4.8890 ca         1 575      -0.131000
     18 C16          6.3640    -0.4350     6.0460 ca         1 575       0.083100
     19 C17          7.7470    -0.5380     5.9870 ca         1 575      -0.128000
     20 C18          8.4050    -0.5020     4.7770 ca         1 575      -0.002000
     21 C19          7.6740    -0.3610     3.5970 ca         1 575      -0.188600
     22 C20          8.3360    -0.3180     2.2870 c          1 575       0.640100
     23 O1           9.5470    -0.4090     2.2260 o          1 575      -0.657500
     24 N3           7.6260    -0.1830     1.1550 ns         1 575      -0.124500
     25 C21          6.2870    -0.0840     1.1410 c          1 575       0.671700
     26 O2           5.7020     0.0320     0.0790 o          1 575      -0.719500
     27 Br1          5.4900    -0.4880     7.7220 br         1 575      -0.130100
     28 H1          -0.5410     0.0010    -0.9390 ha         1 575       0.110000
     29 H2           1.9230     0.0010    -0.9380 ha         1 575       0.115500
     30 H4           1.9120    -0.0020     3.3460 ha         1 575       0.115500
     31 H5          -0.5510    -0.0030     3.3330 ha         1 575       0.110000
     32 H7          -2.5640     0.5090     2.0770 h1         1 575       0.013700
     33 H7A         -2.5590     0.5090     0.3080 h1         1 575       0.013700
     34 H8          -4.3390    -1.5910    -0.1070 h1         1 575       0.013700
     35 H8A         -4.6050    -0.5100     1.2790 h1         1 575       0.013700
     36 H9          -5.4370    -2.2660     2.4780 hc         1 575       0.019200
     37 H9A         -5.1370    -3.3560     1.1010 hc         1 575       0.019200
     38 H10         -3.7470    -3.4980     3.5090 hc         1 575       0.019200
     39 H10A        -3.0730    -4.0490     1.9480 hc         1 575       0.019200
     40 H11         -2.7180    -1.3370     3.3140 h1         1 575       0.013700
     41 H11A        -1.4630    -2.3910     2.6050 h1         1 575       0.013700
     42 HN2          3.9730     0.0360     0.3420 hn         1 575       0.359800
     43 H12          3.6110     0.1260     3.3190 h4         1 575       0.137000
     44 H15          4.5430    -0.2140     4.9400 ha         1 575       0.119000
     45 H17          8.3160    -0.6480     6.9020 ha         1 575       0.121000
     46 H18          9.4850    -0.5840     4.7410 ha         1 575       0.128000
     47 HN3          8.1160    -0.1630     0.2820 hn         1 575       0.192500
@<TRIPOS>BOND
     1     1     2 ar  
     2     1     6 ar  
     3     1    28 1   
     4     2     3 ar  
     5     2    29 1   
     6     3     4 ar  
     7     3    13 1   
     8     4     5 ar  
     9     4    30 1   
    10     5     6 ar  
    11     5    31 1   
    12     6     7 1   
    13     7     8 1   
    14     7    32 1   
    15     7    33 1   
    16     8     9 1   
    17     8    12 1   
    18     9    10 1   
    19     9    34 1   
    20     9    35 1   
    21    10    11 1   
    22    10    36 1   
    23    10    37 1   
    24    11    12 1   
    25    11    38 1   
    26    11    39 1   
    27    12    40 1   
    28    12    41 1   
    29    13    14 1   
    30    13    42 1   
    31    14    15 2   
    32    14    43 1   
    33    15    16 1   
    34    15    25 1   
    35    16    17 ar  
    36    16    21 ar  
    37    17    18 ar  
    38    17    44 1   
    39    18    19 ar  
    40    18    27 1   
    41    19    20 ar  
    42    19    45 1   
    43    20    21 ar  
    44    20    46 1   
    45    21    22 1   
    46    22    23 2   
    47    22    24 1   
    48    24    25 1   
    49    24    47 1   
    50    25    26 2   
@<TRIPOS>SUBSTRUCTURE
     1 575         1 TEMP              0 ****  ****    0 ROOT
