@<TRIPOS>MOLECULE
576
   38    40     1     0     0
SMALL
bcc


@<TRIPOS>ATOM
      1 O1         -0.0080   -0.0770   -0.3500 oh        1 576     -0.661800
      2 C2          1.3750   -0.0270   -0.0220 c3        1 576      0.172100
      3 C17         1.6020    0.0180    1.4800 c3        1 576     -0.234400
      4 C18         1.2190   -1.3100    2.1540 c         1 576      0.909600
      5 O20         0.1610   -1.8940    1.7660 o         1 576     -0.847800
      6 O19         1.9660   -1.7490    3.0700 o         1 576     -0.847800
      7 C3          1.9460    1.2200   -0.6990 c3        1 576     -0.076400
      8 C4          1.8780    1.0970   -2.2090 c3        1 576     -0.047100
      9 C5          2.2970    2.3490   -2.8960 ca        1 576     -0.043300
     10 C6          3.5190    2.3980   -3.5930 ca        1 576     -0.122000
     11 C7          3.8810    3.5670   -4.2330 ca        1 576     -0.086300
     12 C1          5.1180    3.8720   -5.0320 c3        1 576      0.007200
     13 C16         4.9130    5.3000   -5.4570 ca        1 576     -0.087300
     14 C15         5.7270    6.1170   -6.2180 ca        1 576     -0.121000
     15 C14         5.3080    7.4310   -6.4790 ca        1 576     -0.139000
     16 C13         4.0970    7.9050   -5.9850 ca        1 576     -0.135000
     17 C12         3.2640    7.0850   -5.2120 ca        1 576     -0.114000
     18 C11         3.6680    5.7870   -4.9490 cp        1 576     -0.021000
     19 C8          3.0310    4.7140   -4.1910 cp        1 576     -0.069000
     20 C9          1.8290    4.6660   -3.5020 ca        1 576     -0.099000
     21 C10         1.4700    3.4770   -2.8570 ca        1 576     -0.136000
     22 H1         -0.4030   -0.7470    0.2370 ho        1 576      0.457000
     23 H2          1.8730   -0.9460   -0.4470 h1        1 576      0.025700
     24 H171        0.9750    0.8270    1.9310 hc        1 576      0.035200
     25 H172        2.6760    0.2410    1.6940 hc        1 576      0.035200
     26 H31C        1.3630    2.1170   -0.3670 hc        1 576      0.039200
     27 H32C        3.0080    1.3550   -0.3710 hc        1 576      0.039200
     28 H41C        0.8190    0.8480   -2.4960 hc        1 576      0.058200
     29 H42C        2.5230    0.2400   -2.5400 hc        1 576      0.058200
     30 H6          4.1710    1.5130   -3.6200 ha        1 576      0.135000
     31 H10         0.5190    3.4240   -2.3040 ha        1 576      0.144000
     32 H11C        5.2070    3.1940   -5.9180 hc        1 576      0.068200
     33 H12C        6.0410    3.7640   -4.4080 hc        1 576      0.068200
     34 H15         6.6850    5.7530   -6.6120 ha        1 576      0.128000
     35 H14         5.9490    8.0890   -7.0830 ha        1 576      0.122000
     36 H13         3.7860    8.9380   -6.2000 ha        1 576      0.123000
     37 H12         2.3090    7.4670   -4.8240 ha        1 576      0.133000
     38 H9          1.1690    5.5430   -3.4610 ha        1 576      0.127000
@<TRIPOS>BOND
     1    1    2 1   
     2    1   22 1   
     3    2    3 1   
     4    2    7 1   
     5    2   23 1   
     6    3    4 1   
     7    3   24 1   
     8    3   25 1   
     9    4    5 1   
    10    4    6 1   
    11    7    8 1   
    12    7   26 1   
    13    7   27 1   
    14    8    9 1   
    15    8   28 1   
    16    8   29 1   
    17    9   10 ar  
    18    9   21 ar  
    19   10   11 ar  
    20   10   30 1   
    21   11   12 1   
    22   11   19 ar  
    23   12   13 1   
    24   12   32 1   
    25   12   33 1   
    26   13   14 ar  
    27   13   18 ar  
    28   14   15 ar  
    29   14   34 1   
    30   15   16 ar  
    31   15   35 1   
    32   16   17 ar  
    33   16   36 1   
    34   17   18 ar  
    35   17   37 1   
    36   18   19 1   
    37   19   20 ar  
    38   20   21 ar  
    39   20   38 1   
    40   21   31 1   
@<TRIPOS>SUBSTRUCTURE
     1 576         1 TEMP              0 ****  ****    0 ROOT
