@<TRIPOS>MOLECULE
molecule
   38    40     1     0     0
SMALL
bcc


@<TRIPOS>ATOM
      1 O1           0.0000     0.0000     0.0000 oh         1 576      -0.608800
      2 C2           1.4280     0.0000     0.0000 c3         1 576       0.165100
      3 C17          1.9390     0.0000     1.4430 c3         1 576      -0.193400
      4 C18          1.5400    -1.2880     2.1160 c          1 576       0.898600
      5 O20          0.9120    -2.1200     1.5060 o          1 576      -0.857800
      6 O19          1.8820    -1.5100     3.3960 o          1 576      -0.857800
      7 C3           1.9390     1.2490    -0.7210 c3         1 576      -0.095400
      8 C4           1.5340     1.1880    -2.1950 c3         1 576      -0.043100
      9 C5           2.0360     2.4180    -2.9050 ca         1 576      -0.051300
     10 C6           3.2910     2.4150    -3.4890 ca         1 576      -0.115000
     11 C7           3.7530     3.5390    -4.1390 ca         1 576      -0.085300
     12 C1           5.0480     3.8370    -4.8560 c3         1 576       0.013200
     13 C16          4.9320     5.2570    -5.3520 ca         1 576      -0.090300
     14 C15          5.7970     6.0610    -6.0650 ca         1 576      -0.114000
     15 C14          5.4290     7.3530    -6.3940 ca         1 576      -0.135000
     16 C13          4.1930     7.8420    -6.0090 ca         1 576      -0.134000
     17 C12          3.3230     7.0440    -5.2950 ca         1 576      -0.111000
     18 C11          3.6880     5.7400    -4.9600 cp         1 576      -0.025000
     19 C8           2.9610     4.6830    -4.2130 cp         1 576      -0.067000
     20 C9           1.6970     4.6780    -3.6230 ca         1 576      -0.102000
     21 C10          1.2400     3.5470    -2.9780 ca         1 576      -0.129000
     22 H1          -0.3140    -0.7690    -0.4460 ho         1 576       0.402000
     23 H2           1.7890    -0.8840    -0.5110 h1         1 576       0.037700
     24 H171         1.5070     0.8360     1.9790 hc         1 576       0.038700
     25 H172         3.0180     0.0890     1.4450 hc         1 576       0.038700
     26 H31C         3.0190     1.2940    -0.6440 hc         1 576       0.044700
     27 H32C         1.5080     2.1320    -0.2640 hc         1 576       0.044700
     28 H41C         0.4540     1.1430    -2.2710 hc         1 576       0.050700
     29 H42C         1.9650     0.3060    -2.6520 hc         1 576       0.050700
     30 H6           3.9060     1.5240    -3.4470 ha         1 576       0.134000
     31 H10          0.2540     3.5420    -2.5310 ha         1 576       0.139000
     32 H11C         5.1730     3.1600    -5.6920 hc         1 576       0.066700
     33 H12C         5.8810     3.7500    -4.1690 hc         1 576       0.066700
     34 H15          6.7660     5.6800    -6.3670 ha         1 576       0.125000
     35 H14          6.1090     7.9830    -6.9540 ha         1 576       0.124000
     36 H13          3.9080     8.8540    -6.2680 ha         1 576       0.124000
     37 H12          2.3560     7.4310    -4.9950 ha         1 576       0.129000
     38 H9           1.0700     5.5610    -3.6780 ha         1 576       0.123000
@<TRIPOS>BOND
     1     1     2 1
     2     2     3 1
     3     2     7 1
     4     3     4 1
     5     4     5 1
     6     4     6 1
     7     7     8 1
     8     8     9 1
     9     9    10 ar
    10     9    21 ar
    11    10    11 ar
    12    11    12 1
    13    11    19 ar
    14    12    13 1
    15    13    14 ar
    16    13    18 ar
    17    14    15 ar
    18    15    16 ar
    19    16    17 ar
    20    17    18 ar
    21    18    19 1
    22    19    20 ar
    23    20    21 ar
    24     1    22 1
    25     2    23 1
    26     3    24 1
    27     3    25 1
    28     7    26 1
    29     7    27 1
    30     8    28 1
    31     8    29 1
    32    10    30 1
    33    21    31 1
    34    12    32 1
    35    12    33 1
    36    14    34 1
    37    15    35 1
    38    16    36 1
    39    17    37 1
    40    20    38 1
@<TRIPOS>SUBSTRUCTURE
     1 576         1 TEMP              0 ****  ****    0 ROOT
