@<TRIPOS>MOLECULE
577
   43    42     1     0     0
SMALL
bcc


@<TRIPOS>ATOM
      1 N2          0.1430   -0.0840    0.2840 na        1 577     -0.179000
      2 C2          1.5440   -0.0850    0.1910 c2        1 577      0.014000
      3 N1          2.1080    0.0070    1.4250 n2        1 577     -0.127000
      4 C4          1.0500    0.0720    2.3400 c2        1 577     -0.070000
      5 C5         -0.1920    0.0280    1.6370 c2        1 577     -0.056000
      6 C14        -3.3770   -2.2700   -0.1420 c1        1 577     -0.222000
      7 C7         -1.5650    0.0970    2.0770 c2        1 577     -0.063000
      8 C16        -1.9610    0.8040    3.1490 c2        1 577     -0.079000
      9 C10        -3.3150    0.8630    3.5620 c1        1 577     -0.113000
     10 N5         -4.4220    0.9270    3.9170 n1        1 577     -0.026000
     11 C18        -4.1060   -1.3220   -0.1370 c1        1 577     -0.222000
     12 C15         0.2450    1.5660    7.1460 c2        1 577     -0.535000
     13 C8          1.3080    0.5170    6.9550 c3        1 577      0.138000
     14 C17         0.8060   -0.5430    6.0560 c1        1 577     -0.032000
     15 C11         0.4780   -0.3730    4.7070 c2        1 577     -0.211000
     16 C13         1.2940    0.1480    3.7600 c2        1 577     -0.054000
     17 C19         0.1870    2.7620    6.6110 c1        1 577      0.228000
     18 C1          2.2530   -0.1790   -1.0930 c2        1 577      0.072000
     19 C9          3.6080   -0.1780   -1.1250 c2        1 577     -0.080000
     20 C3          4.4440   -0.2740   -2.3010 c2        1 577     -0.041000
     21 C12         4.1540    0.2010   -3.5170 c2        1 577     -0.630000
     22 C20         0.7420   -0.3840   -3.2090 c1        1 577     -0.157000
     23 C6          1.4370   -0.2870   -2.2380 c1        1 577     -0.166000
     24 S1          5.1840    0.2370   -4.8680 s4        1 577      1.457000
     25 O1          4.2900    0.4610   -6.0380 o         1 577     -0.778000
     26 C21         5.6980   -1.4200   -4.9820 c3        1 577     -0.675000
     27 HN2        -0.4910   -0.1230   -0.4740 hn        1 577      0.267000
     28 H14        -2.7400   -3.1190   -0.1460 ha        1 577      0.223500
     29 H16        -2.3000   -0.4620    1.4610 ha        1 577      0.153000
     30 H10        -1.2510    1.3850    3.7680 ha        1 577      0.168000
     31 H18        -4.7620   -0.4880   -0.1330 ha        1 577      0.223500
     32 H15        -0.5550    1.2630    7.8570 ha        1 577      0.218000
     33 H17         2.2290    0.9890    6.4740 h1        1 577      0.107000
     34 H11        -0.4790   -0.8580    4.4150 ha        1 577      0.174000
     35 H19         2.2770    0.5710    4.0440 ha        1 577      0.142000
     36 H9          4.1720   -0.1160   -0.1730 ha        1 577      0.163000
     37 H3          5.4150   -0.7750   -2.1110 ha        1 577      0.125000
     38 H20         3.1760    0.6940   -3.6850 h4        1 577      0.173000
     39 H6          0.1420   -0.4670   -4.0820 ha        1 577      0.236000
     40 H211        6.0980   -1.7910   -4.0120 h1        1 577      0.124667
     41 H212        6.5130   -1.4810   -5.7420 h1        1 577      0.124667
     42 H213        4.8940   -2.1180   -5.3110 h1        1 577      0.124667
     43 F1          1.7130    0.0080    8.1820 f         1 577     -0.142000
@<TRIPOS>BOND
     1    1    2 1   
     2    1    5 1   
     3    1   27 1   
     4    2    3 1   
     5    2   18 1   
     6    3    4 1   
     7    4    5 1   
     8    4   16 1   
     9    5    7 1   
    10    6   11 1   
    11    6   28 1   
    12    7    8 1   
    13    7   29 1   
    14    8    9 1   
    15    8   30 1   
    16    9   10 1   
    17   11   31 1   
    18   12   13 1   
    19   12   17 1   
    20   12   32 1   
    21   13   14 1   
    22   13   33 1   
    23   13   43 1   
    24   14   15 1   
    25   15   16 1   
    26   15   34 1   
    27   16   35 1   
    28   18   19 1   
    29   18   23 1   
    30   19   20 1   
    31   19   36 1   
    32   20   21 1   
    33   20   37 1   
    34   21   24 1   
    35   21   38 1   
    36   22   23 1   
    37   22   39 1   
    38   24   25 1   
    39   24   26 1   
    40   26   40 1   
    41   26   41 1   
    42   26   42 1   
@<TRIPOS>SUBSTRUCTURE
     1 577         1 TEMP              0 ****  ****    0 ROOT
