@<TRIPOS>MOLECULE
molecule
   43    46     1     0     0
SMALL
bcc


@<TRIPOS>ATOM
      1 N2           0.0000     0.0000     0.0000 na         1 577      -0.274900
      2 C2           1.3650     0.0000     0.0000 cc         1 577       0.460000
      3 N1           1.7950     0.0000     1.2400 nd         1 577      -0.669000
      4 C4           0.7490     0.0090     2.0790 cd         1 577       0.395800
      5 C5          -0.4060     0.0060     1.3140 cc         1 577      -0.177600
      6 C14         -2.7470    -0.8790     1.2880 ca         1 577      -0.242300
      7 C7          -1.7950     0.0070     1.8100 ca         1 577       0.019000
      8 C16         -2.1990     0.8910     2.8200 ca         1 577      -0.242300
      9 C10         -3.5090     0.8610     3.2490 ca         1 577       0.422200
     10 N5          -4.3730     0.0100     2.7300 nb         1 577      -0.687000
     11 C18         -4.0330    -0.8420     1.7820 ca         1 577       0.422200
     12 C15          1.8000     0.8320     5.5920 ca         1 577      -0.172000
     13 C8           0.9410     0.0320     6.3260 ca         1 577       0.134900
     14 C17          0.0180    -0.7760     5.6810 ca         1 577      -0.172000
     15 C11         -0.0480    -0.7870     4.3030 ca         1 577      -0.083000
     16 C13          0.8150     0.0170     3.5590 ca         1 577      -0.125500
     17 C19          1.7460     0.8240     4.2130 ca         1 577      -0.083000
     18 C1           2.2210    -0.0050    -1.2040 ca         1 577      -0.086500
     19 C9           3.3840     0.7650    -1.2410 ca         1 577      -0.121500
     20 C3           4.1790     0.7560    -2.3680 ca         1 577      -0.058000
     21 C12          3.8270    -0.0160    -3.4610 ca         1 577      -0.108500
     22 C20          2.6730    -0.7770    -3.4330 ca         1 577      -0.058000
     23 C6           1.8720    -0.7800    -2.3100 ca         1 577      -0.121500
     24 S1           4.8490    -0.0230    -4.8970 sx         1 577       0.348400
     25 O1           3.9060    -0.4520    -5.8680 o          1 577      -0.521200
     26 C21          5.9600    -1.3940    -4.4850 c3         1 577      -0.106800
     27 HN2         -0.5940    -0.0020    -0.8050 hn         1 577       0.309700
     28 H14         -2.4760    -1.5810     0.5090 ha         1 577       0.146000
     29 H16         -1.4950     1.5930     3.2510 ha         1 577       0.146000
     30 H10         -3.8310     1.5420     4.0280 h4         1 577       0.027600
     31 H18         -4.7770    -1.5230     1.3850 h4         1 577       0.027600
     32 H15          2.5210     1.4610     6.1010 ha         1 577       0.146500
     33 H17         -0.6520    -1.4010     6.2590 ha         1 577       0.146500
     34 H11         -0.7690    -1.4190     3.7990 ha         1 577       0.147000
     35 H19          2.4180     1.4510     3.6400 ha         1 577       0.147000
     36 H9           3.6610     1.3700    -0.3860 ha         1 577       0.141500
     37 H3           5.0830     1.3520    -2.3960 ha         1 577       0.146500
     38 H20          2.4020    -1.3790    -4.2920 ha         1 577       0.146500
     39 H6           0.9680    -1.3770    -2.2900 ha         1 577       0.141500
     40 H211         6.5130    -1.1530    -3.5840 h1         1 577       0.076700
     41 H212         5.3790    -2.2940    -4.3220 h1         1 577       0.076700
     42 H213         6.6540    -1.5550    -5.3010 h1         1 577       0.076700
     43 F1           1.0010     0.0380     7.6760 f          1 577      -0.141900
@<TRIPOS>BOND
     1     1     2 1
     2     1     5 1
     3     1    27 1
     4     2     3 2
     5     2    18 1
     6     3     4 1
     7     4     5 2
     8     4    16 1
     9     5     7 1
    10     6     7 ar
    11     6    11 ar
    12     6    28 1
    13     7     8 ar
    14     8     9 ar
    15     8    29 1
    16     9    10 ar
    17     9    30 1
    18    10    11 ar
    19    11    31 1
    20    12    13 ar
    21    12    17 ar
    22    12    32 1
    23    13    14 ar
    24    13    43 1
    25    14    15 ar
    26    14    33 1
    27    15    16 ar
    28    15    34 1
    29    16    17 ar
    30    17    35 1
    31    18    19 ar
    32    18    23 ar
    33    19    20 ar
    34    19    36 1
    35    20    21 ar
    36    20    37 1
    37    21    22 ar
    38    21    24 1
    39    22    23 ar
    40    22    38 1
    41    23    39 1
    42    24    25 2
    43    24    26 1
    44    26    40 1
    45    26    41 1
    46    26    42 1
@<TRIPOS>SUBSTRUCTURE
     1 577         1 TEMP              0 ****  ****    0 ROOT
