@<TRIPOS>MOLECULE
578
   57    58     1     0     0
SMALL
bcc


@<TRIPOS>ATOM
      1 C27          0.0000     0.0000     0.0000 ca         1 578      -0.076500
      2 C28          1.3820     0.0000     0.0000 ca         1 578      -0.114000
      3 C29          2.0730     0.0000     1.1970 ca         1 578      -0.108000
      4 C30          1.3820     0.0010     2.3940 ca         1 578      -0.114000
      5 C31          0.0000     0.0010     2.3940 ca         1 578      -0.076500
      6 C26         -0.6920    -0.0000     1.1970 ca         1 578      -0.096300
      7 C23         -2.1990     0.0000     1.1980 c3         1 578       0.297700
      8 O22         -2.6830    -1.3680     1.1970 os         1 578      -0.431900
      9 C20         -4.0180    -1.5440     1.1970 c          1 578       0.654100
     10 O21         -4.7580    -0.5800     1.1970 o          1 578      -0.695000
     11 N19         -4.5340    -2.7900     1.1960 ns         1 578      -0.055900
     12 C15         -5.9850    -2.9820     1.1960 c3         1 578      -0.005500
     13 C16         -6.3580    -4.0590     0.1750 c3         1 578      -0.039700
     14 C18         -5.7620    -3.6990    -1.1870 c3         1 578      -0.014600
     15 C17         -7.8800    -4.1470     0.0590 c3         1 578      -0.014600
     16 P14         -6.5290    -3.5020     2.8560 p5         1 578       0.648600
     17 O24         -5.7860    -4.8720     3.2590 o          1 578      -0.654000
     18 O25         -6.1920    -2.4500     3.8400 o          1 578      -0.654000
     19 O13         -8.1220    -3.7400     2.8490 os         1 578      -0.469200
     20 C1          -8.8670    -4.0540     4.0270 c3         1 578       0.198400
     21 C2          -9.5470    -5.3880     3.8500 c          1 578       0.973600
     22 O12        -10.3080    -5.8890     4.8360 o          1 578      -0.888300
     23 O11         -9.4080    -6.0050     2.8210 o          1 578      -0.888300
     24 C3          -9.9060    -2.9890     4.2640 ca         1 578       0.023700
     25 C8         -10.1620    -2.5470     5.5490 ca         1 578      -0.048000
     26 C4         -10.5990    -2.4480     3.1960 ca         1 578      -0.015000
     27 C5         -11.5510    -1.4710     3.4140 ca         1 578      -0.112000
     28 C6         -11.8110    -1.0340     4.6990 ca         1 578      -0.135000
     29 C7         -11.1150    -1.5680     5.7660 ca         1 578      -0.244300
     30 C9         -11.3940    -1.0870     7.1660 c3         1 578       0.048100
     31 N10        -10.5150     0.0470     7.4780 nz         1 578       0.052400
     32 H27         -0.5410    -0.0000    -0.9380 ha         1 578       0.109500
     33 H28          1.9240    -0.0000    -0.9380 ha         1 578       0.096000
     34 H29          3.1560    -0.0000     1.1970 ha         1 578       0.093000
     35 H30          1.9240     0.0010     3.3330 ha         1 578       0.096000
     36 H31         -0.5410     0.0010     3.3330 ha         1 578       0.109500
     37 H231        -2.5590     0.5100     2.0830 h1         1 578       0.008700
     38 H232        -2.5600     0.5120     0.3140 h1         1 578       0.008700
     39 HN19        -3.9240    -3.5830     1.2300 hn         1 578       0.169500
     40 H15         -6.4720    -2.0510     0.9320 h1         1 578       0.065700
     41 H16         -5.9650    -5.0150     0.5000 hc         1 578       0.052700
     42 H181        -4.6810    -3.7580    -1.1350 hc         1 578       0.002533
     43 H182        -6.0560    -2.6920    -1.4550 hc         1 578       0.002533
     44 H183        -6.1250    -4.3930    -1.9350 hc         1 578       0.002533
     45 H171        -8.1510    -4.3980    -0.9600 hc         1 578       0.002533
     46 H172        -8.3180    -3.1920     0.3230 hc         1 578       0.002533
     47 H173        -8.2500    -4.9120     0.7300 hc         1 578       0.002533
     48 H1          -8.1970    -4.1010     4.8770 h1         1 578       0.022700
     49 H8          -9.6160    -2.9660     6.3850 ha         1 578       0.113000
     50 H4         -10.3950    -2.7910     2.1890 ha         1 578       0.141000
     51 H5         -12.0960    -1.0490     2.5780 ha         1 578       0.096000
     52 H6         -12.5580    -0.2680     4.8690 ha         1 578       0.075000
     53 H91        -11.2090    -1.8910     7.8680 hx         1 578       0.067200
     54 H92        -12.4280    -0.7730     7.2400 hx         1 578       0.067200
     55 H101       -10.5570     0.2410     8.4590 hn         1 578       0.216133
     56 H102        -9.5740    -0.1800     7.2230 hn         1 578       0.216133
     57 H103       -10.8140     0.8530     6.9660 hn         1 578       0.216133
@<TRIPOS>BOND
     1     1     2 ar  
     2     1     6 ar  
     3     1    32 1   
     4     2     3 ar  
     5     2    33 1   
     6     3     4 ar  
     7     3    34 1   
     8     4     5 ar  
     9     4    35 1   
    10     5     6 ar  
    11     5    36 1   
    12     6     7 1   
    13     7     8 1   
    14     7    37 1   
    15     7    38 1   
    16     8     9 1   
    17     9    10 2   
    18     9    11 1   
    19    11    12 1   
    20    11    39 1   
    21    12    13 1   
    22    12    16 1   
    23    12    40 1   
    24    13    14 1   
    25    13    15 1   
    26    13    41 1   
    27    14    42 1   
    28    14    43 1   
    29    14    44 1   
    30    15    45 1   
    31    15    46 1   
    32    15    47 1   
    33    16    17 1   
    34    16    18 1   
    35    16    19 1   
    36    19    20 1   
    37    20    21 1   
    38    20    24 1   
    39    20    48 1   
    40    21    22 1   
    41    21    23 1   
    42    24    25 ar  
    43    24    26 ar  
    44    25    29 ar  
    45    25    49 1   
    46    26    27 ar  
    47    26    50 1   
    48    27    28 ar  
    49    27    51 1   
    50    28    29 ar  
    51    28    52 1   
    52    29    30 1   
    53    30    31 1   
    54    30    53 1   
    55    30    54 1   
    56    31    55 1   
    57    31    56 1   
    58    31    57 1   
@<TRIPOS>SUBSTRUCTURE
     1 578         1 TEMP              0 ****  ****    0 ROOT
