@<TRIPOS>MOLECULE
molecule
   54    56     1     0     0
SMALL
bcc


@<TRIPOS>ATOM
      1 C1           0.0000     0.0000     0.0000 c3         1 579      -0.083100
      2 C2           1.5300     0.0000     0.0000 c3         1 579      -0.024100
      3 O2          -2.4590     9.1540     3.1540 os         1 579      -0.416600
      4 C3           2.0330     0.0000     1.4210 cc         1 579      -0.011300
      5 C4           2.3130    -1.1380     2.2140 cd         1 579      -0.261600
      6 C5           2.7490    -0.6750     3.4450 cc         1 579      -0.046600
      7 C7           2.3090     1.0950     2.1830 cd         1 579      -0.218900
      8 C8           2.1680     2.4930     1.7600 c          1 579       0.707700
      9 C11          2.2400     4.8210     2.2500 ca         1 579       0.028600
     10 C12          1.1550     5.1400     1.4450 ca         1 579      -0.007000
     11 C13          0.9210     6.4540     1.0920 ca         1 579      -0.332500
     12 C14          1.7680     7.4530     1.5410 ca         1 579       0.202900
     13 C15          2.8510     7.1370     2.3430 ca         1 579      -0.166000
     14 C16          3.0890     5.8240     2.6990 ca         1 579      -0.094000
     15 C22         -1.3600     9.2520     1.0050 c3         1 579       0.199800
     16 C23         -1.3340     9.7080     2.4690 c3         1 579       0.121400
     17 C24         -2.5510     7.1680     1.7820 c3         1 579       0.199800
     18 C25         -2.4670     7.7260     3.2080 c3         1 579       0.121400
     19 C26          3.1570    -1.5320     4.6160 c3         1 579      -0.030800
     20 C27          2.1700    -2.5410     1.8110 c          1 579       0.610700
     21 C29          3.2900    -3.2310     1.0750 c3         1 579      -0.189100
     22 N6           2.7400     0.6660     3.4200 na         1 579      -0.142100
     23 N10          2.4760     3.4900     2.6140 ns         1 579      -0.485100
     24 N21         -1.4840     7.7860     0.9780 n3         1 579      -0.820500
     25 O28          1.1510    -3.1450     2.0680 o          1 579      -0.517100
     26 O9           1.7730     2.7530     0.6380 o          1 579      -0.575100
     27 O19          0.0430     7.7040    -0.9590 o          1 579      -0.621300
     28 O20         -1.1370     5.6400    -0.1890 o          1 579      -0.621300
     29 S18         -0.4560     6.8600     0.0690 sy         1 579       1.427200
     30 F1           1.5380     8.7390     1.1930 f          1 579      -0.131900
     31 H1          -0.3610     0.7380    -0.7060 hc         1 579       0.039700
     32 H2          -0.3610    -0.9800    -0.2860 hc         1 579       0.039700
     33 H3          -0.3610     0.2420     0.9920 hc         1 579       0.039700
     34 H4           1.8910    -0.8840    -0.5110 hc         1 579       0.061200
     35 H5           1.8910     0.8840    -0.5110 hc         1 579       0.061200
     36 H6           0.4920     4.3580     1.0940 ha         1 579       0.194000
     37 H7           3.5120     7.9210     2.6930 ha         1 579       0.152000
     38 H8           3.9360     5.5770     3.3270 ha         1 579       0.138000
     39 H10         -2.2070     9.6980     0.5000 h1         1 579       0.069700
     40 H11         -0.4210     9.3630     2.9380 h1         1 579       0.051950
     41 H12         -1.3840    10.7890     2.5100 h1         1 579       0.051950
     42 H13         -2.4140     6.0930     1.8040 h1         1 579       0.069700
     43 H14         -3.5160     7.4090     1.3540 h1         1 579       0.069700
     44 H15         -3.3250     7.3910     3.7780 h1         1 579       0.051950
     45 H16         -1.5550     7.3780     3.6780 h1         1 579       0.051950
     46 H17          3.3190    -0.9040     5.4840 hc         1 579       0.055700
     47 H18          4.0720    -2.0590     4.3760 hc         1 579       0.055700
     48 H19          2.3730    -2.2480     4.8300 hc         1 579       0.055700
     49 H20          2.9470    -3.5260     0.0900 hc         1 579       0.061700
     50 H21          3.5970    -4.1100     1.6280 hc         1 579       0.061700
     51 H22          4.1300    -2.5540     0.9770 hc         1 579       0.061700
     52 H23          3.0100     1.2610     4.1780 hn         1 579       0.292700
     53 H24          2.8820     3.2780     3.5050 hn         1 579       0.315500
     54 H9          -0.4390     9.5470     0.5160 h1         1 579       0.069700
@<TRIPOS>BOND
     1    16     3 1   
     2    16    15 1   
     3     3    18 1   
     4    19     6 1   
     5    15    24 1   
     6    18    17 1   
     7     6    22 1   
     8     6     5 2   
     9    22     7 1   
    10    25    20 2   
    11    26     8 2   
    12    24    17 1   
    13    24    29 1   
    14     5    20 1   
    15     5     4 1   
    16    20    21 1   
    17    27    29 2   
    18     7     8 1   
    19     7     4 2   
    20     8    23 1   
    21     4     2 1   
    22    29    11 1   
    23    29    28 2   
    24    10    11 ar  
    25    10     9 ar  
    26    11    12 ar  
    27     2     1 1   
    28    23     9 1   
    29     9    14 ar  
    30    12    30 1   
    31    12    13 ar  
    32    14    13 ar  
    33     1    31 1   
    34     1    32 1   
    35     1    33 1   
    36     2    34 1   
    37     2    35 1   
    38    10    36 1   
    39    13    37 1   
    40    14    38 1   
    41    15    54 1   
    42    15    39 1   
    43    16    40 1   
    44    16    41 1   
    45    17    42 1   
    46    17    43 1   
    47    18    44 1   
    48    18    45 1   
    49    19    46 1   
    50    19    47 1   
    51    19    48 1   
    52    21    49 1   
    53    21    50 1   
    54    21    51 1   
    55    22    52 1   
    56    23    53 1   
@<TRIPOS>SUBSTRUCTURE
     1 579         1 TEMP              0 ****  ****    0 ROOT
