@<TRIPOS>MOLECULE
579
   54    56     1     0     0
SMALL
bcc


@<TRIPOS>ATOM
      1 C1           0.0000     0.0000     0.0000 c3         1 579       0.011900
      2 C2           1.5300     0.0000     0.0000 c3         1 579       0.035900
      3 O2          -2.4590     9.1540     3.1540 os         1 579      -0.405600
      4 C3           2.0330     0.0000     1.4210 cc         1 579       0.004700
      5 C4           2.3130    -1.1380     2.2140 cc         1 579      -0.265600
      6 C5           2.7490    -0.6750     3.4450 cd         1 579      -0.261600
      7 C7           2.3090     1.0950     2.1830 cd         1 579      -0.436900
      8 C8           2.1680     2.4930     1.7600 c          1 579       0.632700
      9 C11          2.2400     4.8210     2.2500 ca         1 579      -0.120400
     10 C12          1.1550     5.1400     1.4450 ca         1 579       0.025000
     11 C13          0.9210     6.4540     1.0920 ca         1 579      -0.170500
     12 C14          1.7680     7.4530     1.5410 ca         1 579       0.184900
     13 C15          2.8510     7.1370     2.3430 ca         1 579      -0.139000
     14 C16          3.0890     5.8240     2.6990 ca         1 579      -0.065000
     15 C22         -1.3600     9.2520     1.0050 c3         1 579       0.195300
     16 C23         -1.3340     9.7080     2.4690 c3         1 579       0.194400
     17 C24         -2.5510     7.1680     1.7820 c3         1 579       0.195300
     18 C25         -2.4670     7.7260     3.2080 c3         1 579       0.194400
     19 C26          3.1570    -1.5320     4.6160 c3         1 579       0.100200
     20 C27          2.1700    -2.5410     1.8110 c          1 579       0.669700
     21 C29          3.2900    -3.2310     1.0750 c3         1 579      -0.088100
     22 N6           2.7400     0.6660     3.4200 na         1 579       0.436900
     23 N10          2.4760     3.4900     2.6140 ns         1 579      -0.052100
     24 N21         -1.4840     7.7860     0.9780 n3         1 579      -0.531500
     25 O28          1.1510    -3.1450     2.0680 o          1 579      -0.555100
     26 O9           1.7730     2.7530     0.6380 o          1 579      -0.613100
     27 O19          0.0430     7.7040    -0.9590 o          1 579      -0.573300
     28 O20         -1.1370     5.6400    -0.1890 o          1 579      -0.573300
     29 S18         -0.4560     6.8600     0.0690 sy         1 579       1.057200
     30 F1           1.5380     8.7390     1.1930 f          1 579      -0.119900
     31 H1          -0.3610     0.7380    -0.7060 hc         1 579       0.005367
     32 H2          -0.3610    -0.9800    -0.2860 hc         1 579       0.005367
     33 H3          -0.3610     0.2420     0.9920 hc         1 579       0.005367
     34 H4           1.8910    -0.8840    -0.5110 hc         1 579       0.030700
     35 H5           1.8910     0.8840    -0.5110 hc         1 579       0.030700
     36 H6           0.4920     4.3580     1.0940 ha         1 579       0.170000
     37 H7           3.5120     7.9210     2.6930 ha         1 579       0.124000
     38 H8           3.9360     5.5770     3.3270 ha         1 579       0.107000
     39 H10         -2.2070     9.6980     0.5000 h1         1 579       0.035450
     40 H11         -0.4210     9.3630     2.9380 h1         1 579       0.009700
     41 H12         -1.3840    10.7890     2.5100 h1         1 579       0.009700
     42 H13         -2.4140     6.0930     1.8040 h1         1 579       0.035450
     43 H14         -3.5160     7.4090     1.3540 h1         1 579       0.035450
     44 H15         -3.3250     7.3910     3.7780 h1         1 579       0.009700
     45 H16         -1.5550     7.3780     3.6780 h1         1 579       0.009700
     46 H17          3.3190    -0.9040     5.4840 hc         1 579       0.012700
     47 H18          4.0720    -2.0590     4.3760 hc         1 579       0.012700
     48 H19          2.3730    -2.2480     4.8300 hc         1 579       0.012700
     49 H20          2.9470    -3.5260     0.0900 hc         1 579       0.024367
     50 H21          3.5970    -4.1100     1.6280 hc         1 579       0.024367
     51 H22          4.1300    -2.5540     0.9770 hc         1 579       0.024367
     52 H23          3.0100     1.2610     4.1780 hn         1 579       0.103700
     53 H24          2.8820     3.2780     3.5050 hn         1 579       0.157500
     54 H9          -0.4390     9.5470     0.5160 h1         1 579       0.035450
@<TRIPOS>BOND
     1     1     2 1   
     2     1    31 1   
     3     1    32 1   
     4     1    33 1   
     5     2     4 1   
     6     2    34 1   
     7     2    35 1   
     8     3    16 1   
     9     3    18 1   
    10     4     5 1   
    11     4     7 2   
    12     5     6 2   
    13     5    20 1   
    14     6    19 1   
    15     6    22 1   
    16     7     8 1   
    17     7    22 1   
    18     8    23 1   
    19     8    26 2   
    20     9    10 ar  
    21     9    14 ar  
    22     9    23 1   
    23    10    11 ar  
    24    10    36 1   
    25    11    12 ar  
    26    11    29 1   
    27    12    13 ar  
    28    12    30 1   
    29    13    14 ar  
    30    13    37 1   
    31    14    38 1   
    32    15    16 1   
    33    15    24 1   
    34    15    39 1   
    35    15    54 1   
    36    16    40 1   
    37    16    41 1   
    38    17    18 1   
    39    17    24 1   
    40    17    42 1   
    41    17    43 1   
    42    18    44 1   
    43    18    45 1   
    44    19    46 1   
    45    19    47 1   
    46    19    48 1   
    47    20    21 1   
    48    20    25 2   
    49    21    49 1   
    50    21    50 1   
    51    21    51 1   
    52    22    52 1   
    53    23    53 1   
    54    24    29 1   
    55    27    29 2   
    56    28    29 2   
@<TRIPOS>SUBSTRUCTURE
     1 579         1 TEMP              0 ****  ****    0 ROOT
