@<TRIPOS>MOLECULE
molecule
   62    64     1     0     0
SMALL
bcc


@<TRIPOS>ATOM
      1 C15          0.0000     0.0000     0.0000 ca         1 57C      -0.136000
      2 C14          1.3820     0.0000     0.0000 ca         1 57C      -0.043000
      3 C12          1.3910    -0.0010     2.3950 ca         1 57C      -0.063000
      4 C4          -4.0940     1.2970     6.5700 cc         1 57C      -0.261600
      5 C3          -3.7800     1.4660     5.2000 cc         1 57C      -0.013300
      6 C11          0.0020     0.0050     2.3980 ca         1 57C       0.033600
      7 C16         -0.6920     0.0050     1.1950 ca         1 57C      -0.073000
      8 C13          2.0770     0.0000     1.1970 ca         1 57C      -0.296500
      9 C7          -2.6090     0.8070     4.9760 cd         1 57C      -0.205900
     10 C5          -3.0780     0.5350     7.1270 cd         1 57C      -0.048600
     11 C8          -1.8510     0.6900     3.7220 c          1 57C       0.701700
     12 C26         -2.9890     0.1010     8.5670 c3         1 57C      -0.031800
     13 C29         -6.5640     1.0650     7.2580 c3         1 57C      -0.189100
     14 C1          -4.1280     3.6880     4.1550 c3         1 57C      -0.076400
     15 C23          3.4760    -3.3090     2.6190 c3         1 57C      -0.106900
     16 C25          3.2910    -2.9890    -0.6570 c3         1 57C      -0.106900
     17 C2          -4.5890     2.2290     4.1830 c3         1 57C      -0.017100
     18 C22          4.5490    -2.3250     2.4770 c3         1 57C       0.232800
     19 C24          4.5320    -2.2850    -0.0520 c3         1 57C       0.232800
     20 N6          -2.1940     0.2400     6.1620 na         1 57C      -0.146100
     21 N10         -0.6970     0.0040     3.6100 ns         1 57C      -0.479100
     22 N21          4.3230    -1.5910     1.1850 n3         1 57C      -0.810500
     23 O28         -5.1920     2.8900     7.8570 o          1 57C      -0.518100
     24 O9          -2.3290     1.2420     2.7490 o          1 57C      -0.591100
     25 O19          4.2390     0.5390    -0.0580 o          1 57C      -0.636300
     26 O20          4.2460     0.5310     2.4410 o          1 57C      -0.636300
     27 S18          3.8390    -0.0080     1.1920 sy         1 57C       1.427200
     28 C6          -4.9490     4.4630     3.1220 c3         1 57C      -0.091100
     29 C9           2.4810    -3.6880     0.4590 c3         1 57C      -0.078900
     30 C10          3.3940    -4.3130     1.4730 c3         1 57C      -0.078900
     31 H1          -0.5410    -0.0000    -0.9390 ha         1 57C       0.142000
     32 H2           1.9230    -0.0010    -0.9390 ha         1 57C       0.151000
     33 H3           1.9350    -0.0010     3.3310 ha         1 57C       0.147000
     34 H4          -1.7750     0.0070     1.1940 ha         1 57C       0.169000
     35 H5          -3.7310    -0.6640     8.7610 hc         1 57C       0.055367
     36 H6          -2.0010    -0.2960     8.7650 hc         1 57C       0.055367
     37 H7          -3.1720     0.9520     9.2120 hc         1 57C       0.055367
     38 H8          -7.3590     1.7050     6.8940 hc         1 57C       0.061033
     39 H9          -6.4530     0.2150     6.5950 hc         1 57C       0.061033
     40 H10         -6.8100     0.7160     8.2540 hc         1 57C       0.061033
     41 H11         -4.2690     4.1300     5.1340 hc         1 57C       0.050200
     42 H12         -3.0790     3.7300     3.8880 hc         1 57C       0.050200
     43 H13          3.6310    -3.8540     3.5420 hc         1 57C       0.045450
     44 H14          2.5320    -2.7800     2.6790 hc         1 57C       0.045450
     45 H15          2.6640    -2.2530    -1.1450 hc         1 57C       0.045450
     46 H16          3.6150    -3.7280    -1.3790 hc         1 57C       0.045450
     47 H17         -4.4480     1.7870     3.2040 hc         1 57C       0.058700
     48 H18         -5.6380     2.1870     4.4500 hc         1 57C       0.058700
     49 H19          5.5070    -2.8300     2.4480 h1         1 57C       0.061950
     50 H20          4.5200    -1.6280     3.3050 h1         1 57C       0.061950
     51 H21          5.2970    -3.0350     0.1090 h1         1 57C       0.061950
     52 H22          4.8980    -1.5710    -0.7800 h1         1 57C       0.061950
     53 H23         -1.3620    -0.3020     6.2840 hn         1 57C       0.293700
     54 H24         -0.3610    -0.5400     4.3800 hn         1 57C       0.315500
     55 H25         -6.0050     4.3280     3.3260 hc         1 57C       0.032700
     56 H26         -4.7020     5.5160     3.1800 hc         1 57C       0.032700
     57 H27         -4.7230     4.0930     2.1300 hc         1 57C       0.032700
     58 H28          1.8510    -2.9570     0.9510 hc         1 57C       0.045200
     59 H29          1.8610    -4.4600     0.0170 hc         1 57C       0.045200
     60 H30          4.3760    -4.4710     1.0440 hc         1 57C       0.045200
     61 H31          2.9770    -5.2480     1.8260 hc         1 57C       0.045200
     62 C27         -5.2670     1.8310     7.2690 c          1 57C       0.610700
@<TRIPOS>BOND
     1    12    10 1
     2    16    29 1
     3    16    19 1
     4    29    30 1
     5    19    22 1
     6    10    20 1
     7    10     4 2
     8    20     9 1
     9    24    11 2
    10    23    62 2
    11     4    62 1
    12     4     5 1
    13    62    13 1
    14    30    15 1
    15     9    11 1
    16     9     5 2
    17    26    27 2
    18    22    18 1
    19    22    27 1
    20    11    21 1
    21     5    17 1
    22    18    15 1
    23    27     8 1
    24    27    25 2
    25     3     8 ar
    26     3     6 ar
    27    17    14 1
    28    21     6 1
    29     8     2 ar
    30     6     7 ar
    31    14    28 1
    32     2     1 ar
    33     7     1 ar
    34     1    31 1
    35     2    32 1
    36     3    33 1
    37     7    34 1
    38    12    35 1
    39    12    36 1
    40    12    37 1
    41    13    38 1
    42    13    39 1
    43    13    40 1
    44    14    41 1
    45    14    42 1
    46    15    43 1
    47    15    44 1
    48    16    45 1
    49    16    46 1
    50    17    47 1
    51    17    48 1
    52    18    49 1
    53    18    50 1
    54    19    51 1
    55    19    52 1
    56    20    53 1
    57    21    54 1
    58    28    55 1
    59    28    56 1
    60    28    57 1
    61    29    58 1
    62    29    59 1
    63    30    60 1
    64    30    61 1
@<TRIPOS>SUBSTRUCTURE
     1 57C         1 TEMP              0 ****  ****    0 ROOT
