@<TRIPOS>MOLECULE
57C
   62    64     1     0     0
SMALL
bcc


@<TRIPOS>ATOM
      1 C15          0.0000     0.0000     0.0000 ca         1 57C      -0.113000
      2 C14          1.3820     0.0000     0.0000 ca         1 57C      -0.008000
      3 C12          1.3910    -0.0010     2.3950 ca         1 57C      -0.029000
      4 C4          -4.0940     1.2970     6.5700 cc         1 57C      -0.265600
      5 C3          -3.7800     1.4660     5.2000 cc         1 57C       0.002700
      6 C11          0.0020     0.0050     2.3980 ca         1 57C      -0.120400
      7 C16         -0.6920     0.0050     1.1950 ca         1 57C      -0.050000
      8 C13          2.0770     0.0000     1.1970 ca         1 57C      -0.142500
      9 C7          -2.6090     0.8070     4.9760 cd         1 57C      -0.418900
     10 C5          -3.0780     0.5350     7.1270 cd         1 57C      -0.261600
     11 C8          -1.8510     0.6900     3.7220 c          1 57C       0.621700
     12 C26         -2.9890     0.1010     8.5670 c3         1 57C       0.099200
     13 C29         -6.5640     1.0650     7.2580 c3         1 57C      -0.089100
     14 C1          -4.1280     3.6880     4.1550 c3         1 57C      -0.025400
     15 C23          3.4760    -3.3090     2.6190 c3         1 57C      -0.057900
     16 C25          3.2910    -2.9890    -0.6570 c3         1 57C      -0.057900
     17 C2          -4.5890     2.2290     4.1830 c3         1 57C       0.040900
     18 C22          4.5490    -2.3250     2.4770 c3         1 57C       0.226800
     19 C24          4.5320    -2.2850    -0.0520 c3         1 57C       0.226800
     20 N6          -2.1940     0.2400     6.1620 na         1 57C       0.427900
     21 N10         -0.6970     0.0040     3.6100 ns         1 57C      -0.037100
     22 N21          4.3230    -1.5910     1.1850 n3         1 57C      -0.518500
     23 O28         -5.1920     2.8900     7.8570 o          1 57C      -0.556100
     24 O9          -2.3290     1.2420     2.7490 o          1 57C      -0.631100
     25 O19          4.2390     0.5390    -0.0580 o          1 57C      -0.587800
     26 O20          4.2460     0.5310     2.4410 o          1 57C      -0.587800
     27 S18          3.8390    -0.0080     1.1920 sy         1 57C       1.052200
     28 C6          -4.9490     4.4630     3.1220 c3         1 57C       0.007900
     29 C9           2.4810    -3.6880     0.4590 c3         1 57C      -0.031900
     30 C10          3.3940    -4.3130     1.4730 c3         1 57C      -0.031900
     31 H1          -0.5410    -0.0000    -0.9390 ha         1 57C       0.112000
     32 H2           1.9230    -0.0010    -0.9390 ha         1 57C       0.125000
     33 H3           1.9350    -0.0010     3.3310 ha         1 57C       0.122000
     34 H4          -1.7750     0.0070     1.1940 ha         1 57C       0.145000
     35 H5          -3.7310    -0.6640     8.7610 hc         1 57C       0.012700
     36 H6          -2.0010    -0.2960     8.7650 hc         1 57C       0.012700
     37 H7          -3.1720     0.9520     9.2120 hc         1 57C       0.012700
     38 H8          -7.3590     1.7050     6.8940 hc         1 57C       0.024367
     39 H9          -6.4530     0.2150     6.5950 hc         1 57C       0.024367
     40 H10         -6.8100     0.7160     8.2540 hc         1 57C       0.024367
     41 H11         -4.2690     4.1300     5.1340 hc         1 57C       0.021200
     42 H12         -3.0790     3.7300     3.8880 hc         1 57C       0.021200
     43 H13          3.6310    -3.8540     3.5420 hc         1 57C       0.017700
     44 H14          2.5320    -2.7800     2.6790 hc         1 57C       0.017700
     45 H15          2.6640    -2.2530    -1.1450 hc         1 57C       0.017700
     46 H16          3.6150    -3.7280    -1.3790 hc         1 57C       0.017700
     47 H17         -4.4480     1.7870     3.2040 hc         1 57C       0.029700
     48 H18         -5.6380     2.1870     4.4500 hc         1 57C       0.029700
     49 H19          5.5070    -2.8300     2.4480 h1         1 57C       0.029700
     50 H20          4.5200    -1.6280     3.3050 h1         1 57C       0.029700
     51 H21          5.2970    -3.0350     0.1090 h1         1 57C       0.029700
     52 H22          4.8980    -1.5710    -0.7800 h1         1 57C       0.029700
     53 H23         -1.3620    -0.3020     6.2840 hn         1 57C       0.105700
     54 H24         -0.3610    -0.5400     4.3800 hn         1 57C       0.155500
     55 H25         -6.0050     4.3280     3.3260 hc         1 57C      -0.000633
     56 H26         -4.7020     5.5160     3.1800 hc         1 57C      -0.000633
     57 H27         -4.7230     4.0930     2.1300 hc         1 57C      -0.000633
     58 H28          1.8510    -2.9570     0.9510 hc         1 57C       0.020200
     59 H29          1.8610    -4.4600     0.0170 hc         1 57C       0.020200
     60 H30          4.3760    -4.4710     1.0440 hc         1 57C       0.020200
     61 H31          2.9770    -5.2480     1.8260 hc         1 57C       0.020200
     62 C27         -5.2670     1.8310     7.2690 c          1 57C       0.669700
@<TRIPOS>BOND
     1     1     2 ar  
     2     1     7 ar  
     3     1    31 1   
     4     2     8 ar  
     5     2    32 1   
     6     3     6 ar  
     7     3     8 ar  
     8     3    33 1   
     9     4     5 1   
    10     4    10 2   
    11     4    62 1   
    12     5     9 2   
    13     5    17 1   
    14     6     7 ar  
    15     6    21 1   
    16     7    34 1   
    17     8    27 1   
    18     9    11 1   
    19     9    20 1   
    20    10    12 1   
    21    10    20 1   
    22    11    21 1   
    23    11    24 2   
    24    12    35 1   
    25    12    36 1   
    26    12    37 1   
    27    13    38 1   
    28    13    39 1   
    29    13    40 1   
    30    13    62 1   
    31    14    17 1   
    32    14    28 1   
    33    14    41 1   
    34    14    42 1   
    35    15    18 1   
    36    15    30 1   
    37    15    43 1   
    38    15    44 1   
    39    16    19 1   
    40    16    29 1   
    41    16    45 1   
    42    16    46 1   
    43    17    47 1   
    44    17    48 1   
    45    18    22 1   
    46    18    49 1   
    47    18    50 1   
    48    19    22 1   
    49    19    51 1   
    50    19    52 1   
    51    20    53 1   
    52    21    54 1   
    53    22    27 1   
    54    23    62 2   
    55    25    27 2   
    56    26    27 2   
    57    28    55 1   
    58    28    56 1   
    59    28    57 1   
    60    29    30 1   
    61    29    58 1   
    62    29    59 1   
    63    30    60 1   
    64    30    61 1   
@<TRIPOS>SUBSTRUCTURE
     1 57C         1 TEMP              0 ****  ****    0 ROOT
