@<TRIPOS>MOLECULE
molecule
   29    31     1     0     0
SMALL
bcc


@<TRIPOS>ATOM
      1 C2           0.0000     0.0000     0.0000 cc         1 57D       0.202900
      2 C3           1.3590     0.0000     0.0000 cd         1 57D      -0.335200
      3 C4           2.0570     0.0000     1.2330 c          1 57D       0.583900
      4 C5           1.2530     0.0000     2.4670 ca         1 57D      -0.261600
      5 C6           1.8580     0.0020     3.7300 ca         1 57D       0.219100
      6 C7           1.0660     0.0030     4.8630 ca         1 57D      -0.255000
      7 C8          -0.3190     0.0030     4.7490 ca         1 57D       0.183100
      8 C9          -0.9260     0.0010     3.5010 ca         1 57D      -0.208000
      9 C10         -0.1490    -0.0000     2.3530 ca         1 57D       0.193100
     10 O1          -0.7220    -0.0000     1.1310 os         1 57D      -0.212200
     11 O4           3.2770     0.0000     1.2710 o          1 57D      -0.524100
     12 O5           3.2100     0.0010     3.8400 oh         1 57D      -0.478100
     13 O7          -1.0880     0.0040     5.8690 oh         1 57D      -0.518100
     14 C2'         -2.1050     0.0050    -1.3310 ca         1 57D      -0.093500
     15 C3'         -2.7610     0.0110    -2.5440 ca         1 57D      -0.132500
     16 C4'         -2.0390     0.0170    -3.7250 ca         1 57D      -0.107000
     17 C5'         -0.6560     0.0170    -3.6970 ca         1 57D      -0.132500
     18 C6'          0.0130     0.0120    -2.4900 ca         1 57D      -0.093500
     19 C1'         -0.7090     0.0050    -1.2960 ca         1 57D      -0.070800
     20 H3           1.9050     0.0000    -0.9360 ha         1 57D       0.170000
     21 H7           1.5260     0.0050     5.8440 ha         1 57D       0.153000
     22 H9          -2.0060     0.0010     3.4240 ha         1 57D       0.158000
     23 HO5          3.4830     0.7360     4.3640 ho         1 57D       0.429000
     24 HO7         -1.2640    -0.8850     6.1300 ho         1 57D       0.430000
     25 H3'         -3.8440     0.0110    -2.5730 ha         1 57D       0.137000
     26 H4'         -2.5590     0.0210    -4.6750 ha         1 57D       0.134000
     27 H5'         -0.0970     0.0220    -4.6250 ha         1 57D       0.137000
     28 H6'          1.0970     0.0120    -2.4700 ha         1 57D       0.145000
     29 H2'         -2.6720     0.0000    -0.4080 ha         1 57D       0.145000
@<TRIPOS>BOND
     1     1     2 2
     2     1    10 1
     3     1    19 1
     4     2     3 1
     5     3     4 1
     6     3    11 2
     7     4     5 ar
     8     4     9 ar
     9     5     6 ar
    10     5    12 1
    11     6     7 ar
    12     7     8 ar
    13     7    13 1
    14     8     9 ar
    15     9    10 1
    16    14    15 ar
    17    14    19 ar
    18    15    16 ar
    19    16    17 ar
    20    17    18 ar
    21    18    19 ar
    22     2    20 1
    23     6    21 1
    24     8    22 1
    25    12    23 1
    26    13    24 1
    27    14    29 1
    28    15    25 1
    29    16    26 1
    30    17    27 1
    31    18    28 1
@<TRIPOS>SUBSTRUCTURE
     1 57D         1 TEMP              0 ****  ****    0 ROOT
