@<TRIPOS>MOLECULE
57D
   29    31     1     0     0
SMALL
bcc


@<TRIPOS>ATOM
      1 C2          0.1220    0.1000   -0.0980 cc        1 57D      0.185900
      2 C3          1.4580    0.2810   -0.0300 cd        1 57D     -0.308200
      3 C4          2.1800    0.3380    1.2450 c         1 57D      0.597900
      4 C5          1.3170    0.1960    2.4230 ca        1 57D     -0.277600
      5 C6          1.8190    0.2310    3.7450 ca        1 57D      0.247100
      6 C7          0.9710    0.0940    4.8520 ca        1 57D     -0.349000
      7 C8         -0.4040   -0.0830    4.6370 ca        1 57D      0.216100
      8 C9         -0.9470   -0.1240    3.3470 ca        1 57D     -0.232000
      9 C10        -0.0690    0.0170    2.2630 ca        1 57D      0.210100
     10 O1         -0.6860   -0.0370    1.0260 os        1 57D     -0.223200
     11 O4          3.4070    0.4920    1.2970 o         1 57D     -0.525100
     12 O5          3.1660    0.4050    3.8920 oh        1 57D     -0.448100
     13 O7         -1.2920   -0.2240    5.6730 oh        1 57D     -0.485100
     14 C2'        -2.0100    0.4350   -1.3390 ca        1 57D     -0.093000
     15 C3'        -2.7450    0.3820   -2.5210 ca        1 57D     -0.136000
     16 C4'        -2.1500   -0.0740   -3.6970 ca        1 57D     -0.109000
     17 C5'        -0.8160   -0.4820   -3.6900 ca        1 57D     -0.136000
     18 C6'        -0.0740   -0.4330   -2.5120 ca        1 57D     -0.093000
     19 C1'        -0.6670    0.0320   -1.3290 ca        1 57D     -0.075800
     20 H3          2.0630    0.4030   -0.9410 ha        1 57D      0.169000
     21 H7          1.3770    0.1230    5.8710 ha        1 57D      0.143000
     22 H9         -2.0240   -0.2650    3.1900 ha        1 57D      0.173000
     23 HO5         3.3710    0.4100    4.8400 ho        1 57D      0.421000
     24 HO7        -0.7970   -0.1800    6.5050 ho        1 57D      0.427000
     25 H3'        -3.7980    0.7020   -2.5250 ha        1 57D      0.138000
     26 H4'        -2.7320   -0.1140   -4.6300 ha        1 57D      0.136000
     27 H5'        -0.3460   -0.8460   -4.6160 ha        1 57D      0.138000
     28 H6'         0.9760   -0.7650   -2.5090 ha        1 57D      0.145500
     29 H2'        -2.4780    0.7900   -0.4080 ha        1 57D      0.145500
@<TRIPOS>BOND
     1    1    2 2   
     2    1   10 1   
     3    1   19 1   
     4    2    3 1   
     5    2   20 1   
     6    3    4 1   
     7    3   11 2   
     8    4    5 ar  
     9    4    9 ar  
    10    5    6 ar  
    11    5   12 1   
    12    6    7 ar  
    13    6   21 1   
    14    7    8 ar  
    15    7   13 1   
    16    8    9 ar  
    17    8   22 1   
    18    9   10 1   
    19   12   23 1   
    20   13   24 1   
    21   14   15 ar  
    22   14   19 ar  
    23   14   29 1   
    24   15   16 ar  
    25   15   25 1   
    26   16   17 ar  
    27   16   26 1   
    28   17   18 ar  
    29   17   27 1   
    30   18   19 ar  
    31   18   28 1   
@<TRIPOS>SUBSTRUCTURE
     1 57D         1 TEMP              0 ****  ****    0 ROOT
