@<TRIPOS>MOLECULE
57E
   48    50     1     0     0
SMALL
bcc


@<TRIPOS>ATOM
      1 C1           0.0000     0.0000     0.0000 c3         1 57E       0.001900
      2 C2           1.5300     0.0000     0.0000 c3         1 57E       0.051900
      3 C3           2.0320     0.0000     1.4210 cc         1 57E      -0.056300
      4 C4           2.3130    -1.1390     2.2140 cc         1 57E      -0.251600
      5 C5           2.7490    -0.6760     3.4470 cd         1 57E      -0.277600
      6 C7           2.3070     1.0950     2.1840 cd         1 57E      -0.431900
      7 C11          3.1020     4.3710     0.5530 ca         1 57E      -0.195400
      8 C12          2.2980     5.4650     0.8450 ca         1 57E       0.039000
      9 C13          2.5840     6.6960     0.2940 ca         1 57E      -0.150500
     10 C14          3.6700     6.8560    -0.5540 ca         1 57E      -0.023000
     11 C15          4.4800     5.7830    -0.8570 ca         1 57E      -0.082000
     12 C17          4.8360     3.2130    -0.4090 cc         1 57E      -0.134200
     13 C22          3.5180     9.4280     1.9570 c3         1 57E       0.262100
     14 C26          3.1630    -1.5340     4.6140 c3         1 57E       0.102200
     15 C27          2.1690    -2.5410     1.8100 c          1 57E       0.665700
     16 O28          1.1520    -3.1470     2.0730 o          1 57E      -0.551100
     17 C8           2.1650     2.4920     1.7630 c          1 57E       0.624700
     18 C29          3.2850    -3.2290     1.0680 c3         1 57E      -0.089100
     19 N6           2.7390     0.6650     3.4210 na         1 57E       0.481900
     20 N10          3.0770     3.0440     0.9380 n          1 57E       0.259800
     21 O9           1.2250     3.1540     2.1590 o          1 57E      -0.573100
     22 C6           4.1220     2.3720     0.3520 cd         1 57E      -0.213400
     23 C16          4.2000     4.5310    -0.3100 ca         1 57E      -0.056800
     24 O19          1.7230     9.0010    -0.4000 o          1 57E      -0.584800
     25 O20          0.2970     7.5520     1.0530 o          1 57E      -0.584800
     26 N21          2.1920     8.8080     2.0150 n7         1 57E      -0.582100
     27 H1          -0.3610     0.8370    -0.5860 hc         1 57E       0.010700
     28 H2          -0.3610     0.0890     1.0170 hc         1 57E       0.010700
     29 H3          -0.3610    -0.9250    -0.4320 hc         1 57E       0.010700
     30 H4           1.8910    -0.8840    -0.5110 hc         1 57E       0.014200
     31 H5           1.8910     0.8850    -0.5110 hc         1 57E       0.014200
     32 H6           1.4470     5.3510     1.5060 ha         1 57E       0.151000
     33 H7           3.8830     7.8290    -0.9800 ha         1 57E       0.125000
     34 H8           5.3280     5.9110    -1.5190 ha         1 57E       0.110000
     35 H9           5.7160     2.9650    -0.9900 ha         1 57E       0.134000
     36 H10          4.2750     8.6840     2.1760 h1         1 57E       0.000367
     37 H11          3.5750    10.2270     2.6870 h1         1 57E       0.000367
     38 H12          3.6850     9.8330     0.9660 h1         1 57E       0.000367
     39 H13          4.0800    -2.0570     4.3710 hc         1 57E       0.013033
     40 H14          2.3820    -2.2540     4.8270 hc         1 57E       0.013033
     41 H15          3.3230    -0.9080     5.4830 hc         1 57E       0.013033
     42 H16          3.5530    -4.1430     1.5840 hc         1 57E       0.023367
     43 H17          2.9570    -3.4650     0.0620 hc         1 57E       0.023367
     44 H18          4.1460    -2.5740     1.0220 hc         1 57E       0.023367
     45 H19          3.0090     1.2610     4.1790 hn         1 57E       0.111700
     46 H20          4.3370     1.3180     0.4860 h4         1 57E       0.157000
     47 H21          1.6560     8.8480     2.8590 hn         1 57E       0.347800
     48 S18          1.5600     8.0800     0.6680 sy         1 57E       1.042200
@<TRIPOS>BOND
     1     1     2 1   
     2     1    27 1   
     3     1    28 1   
     4     1    29 1   
     5     2     3 1   
     6     2    30 1   
     7     2    31 1   
     8     3     4 1   
     9     3     6 2   
    10     4     5 2   
    11     4    15 1   
    12     5    14 1   
    13     5    19 1   
    14     6    17 1   
    15     6    19 1   
    16     7     8 ar  
    17     7    20 1   
    18     7    23 ar  
    19     8     9 ar  
    20     8    32 1   
    21     9    10 ar  
    22     9    48 1   
    23    10    11 ar  
    24    10    33 1   
    25    11    23 ar  
    26    11    34 1   
    27    12    22 2   
    28    12    23 1   
    29    12    35 1   
    30    13    26 1   
    31    13    36 1   
    32    13    37 1   
    33    13    38 1   
    34    14    39 1   
    35    14    40 1   
    36    14    41 1   
    37    15    16 2   
    38    15    18 1   
    39    17    20 1   
    40    17    21 2   
    41    18    42 1   
    42    18    43 1   
    43    18    44 1   
    44    19    45 1   
    45    20    22 1   
    46    22    46 1   
    47    24    48 2   
    48    25    48 2   
    49    26    47 1   
    50    26    48 1   
@<TRIPOS>SUBSTRUCTURE
     1 57E         1 TEMP              0 ****  ****    0 ROOT
