@<TRIPOS>MOLECULE
molecule
   48    50     1     0     0
SMALL
bcc


@<TRIPOS>ATOM
      1 C1           0.0000     0.0000     0.0000 c3         1 57E      -0.090100
      2 C2           1.5300     0.0000     0.0000 c3         1 57E      -0.020100
      3 C3           2.0320     0.0000     1.4210 cc         1 57E      -0.063300
      4 C4           2.3130    -1.1390     2.2140 cc         1 57E      -0.253600
      5 C5           2.7490    -0.6760     3.4470 cd         1 57E      -0.054600
      6 C7           2.3070     1.0950     2.1840 cd         1 57E      -0.208900
      7 C11          3.1020     4.3710     0.5530 ca         1 57E      -0.020400
      8 C12          2.2980     5.4650     0.8450 ca         1 57E      -0.003000
      9 C13          2.5840     6.6960     0.2940 ca         1 57E      -0.303500
     10 C14          3.6700     6.8560    -0.5540 ca         1 57E      -0.056000
     11 C15          4.4800     5.7830    -0.8570 ca         1 57E      -0.110000
     12 C17          4.8360     3.2130    -0.4090 cc         1 57E      -0.181200
     13 C22          3.5180     9.4280     1.9570 c3         1 57E       0.223100
     14 C26          3.1630    -1.5340     4.6140 c3         1 57E      -0.028800
     15 C27          2.1690    -2.5410     1.8100 c          1 57E       0.608700
     16 O28          1.1520    -3.1470     2.0730 o          1 57E      -0.514100
     17 C8           2.1650     2.4920     1.7630 c          1 57E       0.711700
     18 C29          3.2850    -3.2290     1.0680 c3         1 57E      -0.189100
     19 N6           2.7390     0.6650     3.4210 na         1 57E      -0.117100
     20 N10          3.0770     3.0440     0.9380 n          1 57E      -0.219200
     21 O9           1.2250     3.1540     2.1590 o          1 57E      -0.531100
     22 C6           4.1220     2.3720     0.3520 cd         1 57E      -0.055400
     23 C16          4.2000     4.5310    -0.3100 ca         1 57E      -0.049800
     24 O19          1.7230     9.0010    -0.4000 o          1 57E      -0.633300
     25 O20          0.2970     7.5520     1.0530 o          1 57E      -0.633300
     26 N21          2.1920     8.8080     2.0150 n7         1 57E      -0.917100
     27 H1          -0.3610     0.8370    -0.5860 hc         1 57E       0.044033
     28 H2          -0.3610     0.0890     1.0170 hc         1 57E       0.044033
     29 H3          -0.3610    -0.9250    -0.4320 hc         1 57E       0.044033
     30 H4           1.8910    -0.8840    -0.5110 hc         1 57E       0.048200
     31 H5           1.8910     0.8850    -0.5110 hc         1 57E       0.048200
     32 H6           1.4470     5.3510     1.5060 ha         1 57E       0.177000
     33 H7           3.8830     7.8290    -0.9800 ha         1 57E       0.151000
     34 H8           5.3280     5.9110    -1.5190 ha         1 57E       0.140000
     35 H9           5.7160     2.9650    -0.9900 ha         1 57E       0.164000
     36 H10          4.2750     8.6840     2.1760 h1         1 57E       0.042033
     37 H11          3.5750    10.2270     2.6870 h1         1 57E       0.042033
     38 H12          3.6850     9.8330     0.9660 h1         1 57E       0.042033
     39 H13          4.0800    -2.0570     4.3710 hc         1 57E       0.056033
     40 H14          2.3820    -2.2540     4.8270 hc         1 57E       0.056033
     41 H15          3.3230    -0.9080     5.4830 hc         1 57E       0.056033
     42 H16          3.5530    -4.1430     1.5840 hc         1 57E       0.060367
     43 H17          2.9570    -3.4650     0.0620 hc         1 57E       0.060367
     44 H18          4.1460    -2.5740     1.0220 hc         1 57E       0.060367
     45 H19          3.0090     1.2610     4.1790 hn         1 57E       0.307700
     46 H20          4.3370     1.3180     0.4860 h4         1 57E       0.184000
     47 H21          1.6560     8.8480     2.8590 hn         1 57E       0.456800
     48 S18          1.5600     8.0800     0.6680 sy         1 57E       1.425200
@<TRIPOS>BOND
     1    12    22 2
     2    12    23 1
     3     1     2 1
     4    22    20 1
     5    11    23 ar
     6    11    10 ar
     7    23     7 ar
     8     2     3 1
     9    10     9 ar
    10    20     7 1
    11    20    17 1
    12     7     8 ar
    13    18    15 1
    14     3     4 1
    15     3     6 2
    16    16    15 2
    17    15     4 1
    18     4     5 2
    19    17     6 1
    20    17    21 2
    21     6    19 1
    22     9     8 ar
    23     9    48 1
    24     5    19 1
    25     5    14 1
    26    25    48 2
    27    48    26 1
    28    48    24 2
    29    26    13 1
    30     1    27 1
    31     1    28 1
    32     1    29 1
    33     2    30 1
    34     2    31 1
    35     8    32 1
    36    10    33 1
    37    11    34 1
    38    12    35 1
    39    13    36 1
    40    13    37 1
    41    13    38 1
    42    14    39 1
    43    14    40 1
    44    14    41 1
    45    18    42 1
    46    18    43 1
    47    18    44 1
    48    19    45 1
    49    22    46 1
    50    26    47 1
@<TRIPOS>SUBSTRUCTURE
     1 57E         1 TEMP              0 ****  ****    0 ROOT
