@<TRIPOS>MOLECULE
molecule
   59    60     1     0     0
SMALL
bcc


@<TRIPOS>ATOM
      1 C1           0.0000     0.0000     0.0000 c3         1 57F      -0.082100
      2 C2           1.5310     0.0000     0.0000 c3         1 57F      -0.022100
      3 C3           2.0320     0.0000     1.4210 cc         1 57F      -0.015300
      4 C4           2.3130    -1.1380     2.2160 cd         1 57F      -0.263600
      5 C5           2.7480    -0.6740     3.4470 cc         1 57F      -0.048600
      6 C6           2.3350     8.8860     0.8520 c3         1 57F      -0.102800
      7 C7           2.3070     1.0950     2.1840 cd         1 57F      -0.213900
      8 C8           2.1660     2.4940     1.7600 c          1 57F       0.710700
      9 C11          2.4430     4.8210     2.1770 ca         1 57F       0.010600
     10 C12          1.5120     5.2210     1.2300 ca         1 57F      -0.009000
     11 C13          1.4800     6.5360     0.8050 ca         1 57F      -0.316500
     12 C14          2.3750     7.4540     1.3210 ca         1 57F       0.029700
     13 C15          3.3050     7.0630     2.2650 ca         1 57F      -0.192000
     14 C16          3.3440     5.7470     2.6970 ca         1 57F       0.132100
     15 C27          2.1700    -2.5400     1.8120 c          1 57F       0.610700
     16 C26          3.1560    -1.5310     4.6180 c3         1 57F      -0.030800
     17 C29          3.2860    -3.2280     1.0690 c3         1 57F      -0.189100
     18 C23          0.1060     9.0800    -3.2570 c3         1 57F      -0.116100
     19 C25          3.2660     6.2830    -2.1290 c3         1 57F      -0.116100
     20 C22          1.2060     8.8170    -2.2260 c3         1 57F       0.228300
     21 C24          1.7970     6.3700    -2.5480 c3         1 57F       0.228300
     22 N6           2.7390     0.6660     3.4210 na         1 57F      -0.139100
     23 N10          2.4730     3.4910     2.6140 ns         1 57F      -0.471100
     24 N21          1.1320     7.4240    -1.7770 n3         1 57F      -0.818500
     25 O28          1.1530    -3.1470     2.0760 o          1 57F      -0.520100
     26 O9           1.7710     2.7540     0.6380 o          1 57F      -0.588100
     27 O19         -0.4790     5.8910    -0.7080 o          1 57F      -0.637300
     28 O20         -0.2680     8.2550     0.0780 o          1 57F      -0.637300
     29 O17          4.2580     5.3610     3.6270 oh         1 57F      -0.517100
     30 S18          0.2970     7.0410    -0.4000 sy         1 57F       1.432200
     31 H1          -0.3610     0.7270    -0.7180 hc         1 57F       0.039367
     32 H2          -0.3610    -0.9850    -0.2700 hc         1 57F       0.039367
     33 H3          -0.3610     0.2580     0.9880 hc         1 57F       0.039367
     34 H4           1.8920    -0.8840    -0.5110 hc         1 57F       0.059700
     35 H5           1.8920     0.8850    -0.5100 hc         1 57F       0.059700
     36 H6           2.8390     9.5170     1.5740 hc         1 57F       0.067367
     37 H7           1.3050     9.2050     0.7510 hc         1 57F       0.067367
     38 H8           2.8330     8.9660    -0.1070 hc         1 57F       0.067367
     39 H9           0.8100     4.5030     0.8240 ha         1 57F       0.199000
     40 H10          4.0050     7.7860     2.6680 ha         1 57F       0.143000
     41 H11          2.3780    -2.2560     4.8230 hc         1 57F       0.055033
     42 H12          3.3050    -0.9050     5.4890 hc         1 57F       0.055033
     43 H13          4.0790    -2.0480     4.3830 hc         1 57F       0.055033
     44 H14          3.6050    -4.1010     1.6250 hc         1 57F       0.060700
     45 H15          4.1210    -2.5460     0.9580 hc         1 57F       0.060700
     46 H16          2.9350    -3.5310     0.0900 hc         1 57F       0.060700
     47 H17         -0.8400     8.7140    -2.8770 hc         1 57F       0.042367
     48 H18          0.3480     8.5680    -4.1800 hc         1 57F       0.042367
     49 H19          0.0330    10.1450    -3.4430 hc         1 57F       0.042367
     50 H20          3.3860     5.5000    -1.3900 hc         1 57F       0.042367
     51 H21          3.8760     6.0590    -2.9950 hc         1 57F       0.042367
     52 H22          3.5780     7.2300    -1.7040 hc         1 57F       0.042367
     53 H23          1.0710     9.4780    -1.3770 h1         1 57F       0.059700
     54 H24          2.1740     9.0010    -2.6760 h1         1 57F       0.059700
     55 H25          1.3110     5.4210    -2.3570 h1         1 57F       0.059700
     56 H26          1.7360     6.6020    -3.6040 h1         1 57F       0.059700
     57 H27          3.0080     1.2620     4.1790 hn         1 57F       0.295700
     58 H28          2.6870     3.2830     3.5700 hn         1 57F       0.320500
     59 H29          4.1570     5.8850     4.4040 ho         1 57F       0.424000
@<TRIPOS>BOND
     1    16     5 1
     2     5    22 1
     3     5     4 2
     4    22     7 1
     5    18    20 1
     6    28    30 2
     7    21    19 1
     8    21    24 1
     9    26     8 2
    10    25    15 2
    11     4    15 1
    12     4     3 1
    13    15    17 1
    14     7     8 1
    15     7     3 2
    16    24    20 1
    17    24    30 1
    18     8    23 1
    19     3     2 1
    20    30    27 2
    21    30    11 1
    22    10    11 ar
    23    10     9 ar
    24     2     1 1
    25    23     9 1
    26    11    12 ar
    27     9    14 ar
    28    12     6 1
    29    12    13 ar
    30    14    13 ar
    31    14    29 1
    32     1    31 1
    33     1    32 1
    34     1    33 1
    35     2    34 1
    36     2    35 1
    37     6    36 1
    38     6    37 1
    39     6    38 1
    40    10    39 1
    41    13    40 1
    42    16    41 1
    43    16    42 1
    44    16    43 1
    45    17    44 1
    46    17    45 1
    47    17    46 1
    48    18    47 1
    49    18    48 1
    50    18    49 1
    51    19    50 1
    52    19    51 1
    53    19    52 1
    54    20    53 1
    55    20    54 1
    56    21    55 1
    57    21    56 1
    58    22    57 1
    59    23    58 1
    60    29    59 1
@<TRIPOS>SUBSTRUCTURE
     1 57F         1 TEMP              0 ****  ****    0 ROOT
