@<TRIPOS>MOLECULE
57F
   59    60     1     0     0
SMALL
bcc


@<TRIPOS>ATOM
      1 C1           0.0000     0.0000     0.0000 c3         1 57F       0.011900
      2 C2           1.5310     0.0000     0.0000 c3         1 57F       0.036900
      3 C3           2.0320     0.0000     1.4210 cc         1 57F      -0.000300
      4 C4           2.3130    -1.1380     2.2160 cc         1 57F      -0.267600
      5 C5           2.7480    -0.6740     3.4470 cd         1 57F      -0.264600
      6 C6           2.3350     8.8860     0.8520 c3         1 57F      -0.027800
      7 C7           2.3070     1.0950     2.1840 cd         1 57F      -0.431900
      8 C8           2.1660     2.4940     1.7600 c          1 57F       0.632700
      9 C11          2.4430     4.8210     2.1770 ca         1 57F      -0.154400
     10 C12          1.5120     5.2210     1.2300 ca         1 57F       0.025000
     11 C13          1.4800     6.5360     0.8050 ca         1 57F      -0.164500
     12 C14          2.3750     7.4540     1.3210 ca         1 57F       0.042700
     13 C15          3.3050     7.0630     2.2650 ca         1 57F      -0.187000
     14 C16          3.3440     5.7470     2.6970 ca         1 57F       0.152100
     15 C27          2.1700    -2.5400     1.8120 c          1 57F       0.670700
     16 C26          3.1560    -1.5310     4.6180 c3         1 57F       0.101200
     17 C29          3.2860    -3.2280     1.0690 c3         1 57F      -0.089100
     18 C23          0.1060     9.0800    -3.2570 c3         1 57F      -0.025600
     19 C25          3.2660     6.2830    -2.1290 c3         1 57F      -0.025600
     20 C22          1.2060     8.8170    -2.2260 c3         1 57F       0.224800
     21 C24          1.7970     6.3700    -2.5480 c3         1 57F       0.224800
     22 N6           2.7390     0.6660     3.4210 na         1 57F       0.440900
     23 N10          2.4730     3.4910     2.6140 ns         1 57F      -0.030100
     24 N21          1.1320     7.4240    -1.7770 n3         1 57F      -0.527500
     25 O28          1.1530    -3.1470     2.0760 o          1 57F      -0.558100
     26 O9           1.7710     2.7540     0.6380 o          1 57F      -0.628100
     27 O19         -0.4790     5.8910    -0.7080 o          1 57F      -0.587800
     28 O20         -0.2680     8.2550     0.0780 o          1 57F      -0.587800
     29 O17          4.2580     5.3610     3.6270 oh         1 57F      -0.498100
     30 S18          0.2970     7.0410    -0.4000 sy         1 57F       1.057200
     31 H1          -0.3610     0.7270    -0.7180 hc         1 57F       0.005033
     32 H2          -0.3610    -0.9850    -0.2700 hc         1 57F       0.005033
     33 H3          -0.3610     0.2580     0.9880 hc         1 57F       0.005033
     34 H4           1.8920    -0.8840    -0.5110 hc         1 57F       0.029200
     35 H5           1.8920     0.8850    -0.5100 hc         1 57F       0.029200
     36 H6           2.8390     9.5170     1.5740 hc         1 57F       0.039700
     37 H7           1.3050     9.2050     0.7510 hc         1 57F       0.039700
     38 H8           2.8330     8.9660    -0.1070 hc         1 57F       0.039700
     39 H9           0.8100     4.5030     0.8240 ha         1 57F       0.177000
     40 H10          4.0050     7.7860     2.6680 ha         1 57F       0.121000
     41 H11          2.3780    -2.2560     4.8230 hc         1 57F       0.012033
     42 H12          3.3050    -0.9050     5.4890 hc         1 57F       0.012033
     43 H13          4.0790    -2.0480     4.3830 hc         1 57F       0.012033
     44 H14          3.6050    -4.1010     1.6250 hc         1 57F       0.023700
     45 H15          4.1210    -2.5460     0.9580 hc         1 57F       0.023700
     46 H16          2.9350    -3.5310     0.0900 hc         1 57F       0.023700
     47 H17         -0.8400     8.7140    -2.8770 hc         1 57F       0.009200
     48 H18          0.3480     8.5680    -4.1800 hc         1 57F       0.009200
     49 H19          0.0330    10.1450    -3.4430 hc         1 57F       0.009200
     50 H20          3.3860     5.5000    -1.3900 hc         1 57F       0.009200
     51 H21          3.8760     6.0590    -2.9950 hc         1 57F       0.009200
     52 H22          3.5780     7.2300    -1.7040 hc         1 57F       0.009200
     53 H23          1.0710     9.4780    -1.3770 h1         1 57F       0.026950
     54 H24          2.1740     9.0010    -2.6760 h1         1 57F       0.026950
     55 H25          1.3110     5.4210    -2.3570 h1         1 57F       0.026950
     56 H26          1.7360     6.6020    -3.6040 h1         1 57F       0.026950
     57 H27          3.0080     1.2620     4.1790 hn         1 57F       0.105700
     58 H28          2.6870     3.2830     3.5700 hn         1 57F       0.159500
     59 H29          4.1570     5.8850     4.4040 ho         1 57F       0.408000
@<TRIPOS>BOND
     1     1     2 1   
     2     1    31 1   
     3     1    32 1   
     4     1    33 1   
     5     2     3 1   
     6     2    34 1   
     7     2    35 1   
     8     3     4 1   
     9     3     7 2   
    10     4     5 2   
    11     4    15 1   
    12     5    16 1   
    13     5    22 1   
    14     6    12 1   
    15     6    36 1   
    16     6    37 1   
    17     6    38 1   
    18     7     8 1   
    19     7    22 1   
    20     8    23 1   
    21     8    26 2   
    22     9    10 ar  
    23     9    14 ar  
    24     9    23 1   
    25    10    11 ar  
    26    10    39 1   
    27    11    12 ar  
    28    11    30 1   
    29    12    13 ar  
    30    13    14 ar  
    31    13    40 1   
    32    14    29 1   
    33    15    17 1   
    34    15    25 2   
    35    16    41 1   
    36    16    42 1   
    37    16    43 1   
    38    17    44 1   
    39    17    45 1   
    40    17    46 1   
    41    18    20 1   
    42    18    47 1   
    43    18    48 1   
    44    18    49 1   
    45    19    21 1   
    46    19    50 1   
    47    19    51 1   
    48    19    52 1   
    49    20    24 1   
    50    20    53 1   
    51    20    54 1   
    52    21    24 1   
    53    21    55 1   
    54    21    56 1   
    55    22    57 1   
    56    23    58 1   
    57    24    30 1   
    58    27    30 2   
    59    28    30 2   
    60    29    59 1   
@<TRIPOS>SUBSTRUCTURE
     1 57F         1 TEMP              0 ****  ****    0 ROOT
