@<TRIPOS>MOLECULE
57G
   57    58     1     0     0
SMALL
bcc


@<TRIPOS>ATOM
      1 C11          0.0000     0.0000     0.0000 ca         1 57G      -0.148400
      2 C12          1.3880     0.0000     0.0000 ca         1 57G       0.008000
      3 C7          -0.8950    -0.5650    -3.5760 cc         1 57G      -0.433900
      4 C1           0.9560    -3.0970    -4.7750 c3         1 57G       0.011900
      5 C3          -0.4340    -1.0440    -4.7660 cd         1 57G      -0.000300
      6 C4          -1.4950    -0.9310    -5.6950 cd         1 57G      -0.268600
      7 C5          -2.5710    -0.3790    -5.0160 cc         1 57G      -0.263600
      8 C8          -0.1280    -0.4900    -2.3260 c          1 57G       0.627700
      9 C25          6.0290     2.2030     2.8420 c3         1 57G      -0.020600
     10 C27         -1.4640    -1.3230    -7.1080 c          1 57G       0.650700
     11 O28         -1.8660    -2.4170    -7.4420 o          1 57G      -0.520100
     12 C29         -0.9310    -0.3660    -8.1430 c3         1 57G       0.133400
     13 C15          0.0060     0.0010     2.4040 ca         1 57G      -0.213000
     14 C14          1.3890    -0.0000     2.3970 ca         1 57G       0.029000
     15 C16         -0.6930     0.0000     1.2090 ca         1 57G       0.162100
     16 C13          2.0770     0.0000     1.1980 ca         1 57G      -0.174500
     17 C26         -3.9230    -0.0710    -5.6070 c3         1 57G       0.100200
     18 C23          6.0260     2.2030    -0.4530 c3         1 57G      -0.020600
     19 N6          -2.2000    -0.1570    -3.7460 na         1 57G       0.440900
     20 N10         -0.7020     0.0060    -1.2120 ns         1 57G      -0.026100
     21 N21          4.3300     1.5820     1.1960 n3         1 57G      -0.536500
     22 O9           1.0250    -0.8770    -2.2940 o          1 57G      -0.620100
     23 O19          4.2420    -0.5450     2.4460 o          1 57G      -0.583300
     24 O20          4.2400    -0.5440    -0.0540 o          1 57G      -0.583300
     25 O17         -2.0520     0.0010     1.2150 oh         1 57G      -0.493100
     26 S18          3.8400    -0.0010     1.1960 sy         1 57G       1.052200
     27 O1          -1.1120    -0.9260    -9.4460 oh         1 57G      -0.565800
     28 H1           1.9300    -0.0000    -0.9380 ha         1 57G       0.185000
     29 H2           0.9780    -3.6290    -5.7180 hc         1 57G       0.005700
     30 H3           0.0690    -3.3790    -4.2210 hc         1 57G       0.005700
     31 H4           1.8370    -3.3500    -4.1970 hc         1 57G       0.005700
     32 H5           1.6610    -1.1040    -4.3900 hc         1 57G       0.029700
     33 H6           1.2070    -1.4040    -6.0730 hc         1 57G       0.029700
     34 H7           3.9540     1.8080     3.2370 h1         1 57G       0.013450
     35 H8           4.2550     3.3190     2.3680 h1         1 57G       0.013450
     36 H9           6.5480     3.0680     2.4470 hc         1 57G       0.010033
     37 H10          6.1420     2.1750     3.9190 hc         1 57G       0.010033
     38 H11          6.4490     1.3020     2.4110 hc         1 57G       0.010033
     39 H12         -1.4670     0.5740    -8.0760 h1         1 57G       0.004200
     40 H13          0.1240    -0.1930    -7.9670 h1         1 57G       0.004200
     41 H14         -0.5300     0.0010     3.3450 ha         1 57G       0.115000
     42 H15          1.9340    -0.0000     3.3330 ha         1 57G       0.122000
     43 H16         -4.2840    -0.9350    -6.1510 hc         1 57G       0.013033
     44 H17         -3.8390     0.7720    -6.2820 hc         1 57G       0.013033
     45 H18         -4.6180     0.1710    -4.8110 hc         1 57G       0.013033
     46 H19          6.1220     2.1940    -1.5320 hc         1 57G       0.010033
     47 H20          6.4550     1.2960    -0.0440 hc         1 57G       0.010033
     48 H21          6.5500     3.0620    -0.0520 hc         1 57G       0.010033
     49 H22          4.2540     3.3190     0.0330 h1         1 57G       0.013450
     50 H23          3.9490     1.8150    -0.8470 h1         1 57G       0.013450
     51 H24         -2.7820     0.2370    -3.0330 hn         1 57G       0.106700
     52 H25         -1.6150     0.4130    -1.2590 hn         1 57G       0.163500
     53 H26         -2.3630    -0.3000     2.0530 ho         1 57G       0.417000
     54 H27         -0.8440    -0.2990   -10.0970 ho         1 57G       0.386000
     55 C2           0.9440    -1.5910    -5.0390 c3         1 57G       0.037900
     56 C24          4.5480     2.2810     2.4650 c3         1 57G       0.243300
     57 C22          4.5460     2.2810    -0.0730 c3         1 57G       0.243300
@<TRIPOS>BOND
     1     1     2 ar  
     2     1    15 ar  
     3     1    20 1   
     4     2    16 ar  
     5     2    28 1   
     6     3     5 2   
     7     3     8 1   
     8     3    19 1   
     9     4    29 1   
    10     4    30 1   
    11     4    31 1   
    12     4    55 1   
    13     5     6 1   
    14     5    55 1   
    15     6     7 2   
    16     6    10 1   
    17     7    17 1   
    18     7    19 1   
    19     8    20 1   
    20     8    22 2   
    21     9    36 1   
    22     9    37 1   
    23     9    38 1   
    24     9    56 1   
    25    10    11 2   
    26    10    12 1   
    27    12    27 1   
    28    12    39 1   
    29    12    40 1   
    30    13    14 ar  
    31    13    15 ar  
    32    13    41 1   
    33    14    16 ar  
    34    14    42 1   
    35    15    25 1   
    36    16    26 1   
    37    17    43 1   
    38    17    44 1   
    39    17    45 1   
    40    18    46 1   
    41    18    47 1   
    42    18    48 1   
    43    18    57 1   
    44    19    51 1   
    45    20    52 1   
    46    21    26 1   
    47    21    56 1   
    48    21    57 1   
    49    23    26 2   
    50    24    26 2   
    51    25    53 1   
    52    27    54 1   
    53    32    55 1   
    54    33    55 1   
    55    34    56 1   
    56    35    56 1   
    57    49    57 1   
    58    50    57 1   
@<TRIPOS>SUBSTRUCTURE
     1 57G         1 TEMP              0 ****  ****    0 ROOT
