@<TRIPOS>MOLECULE
molecule
   57    58     1     0     0
SMALL
bcc


@<TRIPOS>ATOM
      1 C11          0.0000     0.0000     0.0000 ca         1 57G       0.014600
      2 C12          1.3880     0.0000     0.0000 ca         1 57G      -0.014000
      3 C7          -0.8950    -0.5650    -3.5760 cc         1 57G      -0.214900
      4 C1           0.9560    -3.0970    -4.7750 c3         1 57G      -0.082100
      5 C3          -0.4340    -1.0440    -4.7660 cd         1 57G      -0.015300
      6 C4          -1.4950    -0.9310    -5.6950 cd         1 57G      -0.265600
      7 C5          -2.5710    -0.3790    -5.0160 cc         1 57G      -0.045600
      8 C8          -0.1280    -0.4900    -2.3260 c          1 57G       0.706700
      9 C25          6.0290     2.2030     2.8420 c3         1 57G      -0.108100
     10 C27         -1.4640    -1.3230    -7.1080 c          1 57G       0.605700
     11 O28         -1.8660    -2.4170    -7.4420 o          1 57G      -0.480100
     12 C29         -0.9310    -0.3660    -8.1430 c3         1 57G       0.046400
     13 C15          0.0060     0.0010     2.4040 ca         1 57G      -0.223000
     14 C14          1.3890    -0.0000     2.3970 ca         1 57G      -0.011000
     15 C16         -0.6930     0.0000     1.2090 ca         1 57G       0.145100
     16 C13          2.0770     0.0000     1.1980 ca         1 57G      -0.328500
     17 C26         -3.9230    -0.0710    -5.6070 c3         1 57G      -0.031800
     18 C23          6.0260     2.2030    -0.4530 c3         1 57G      -0.108100
     19 N6          -2.2000    -0.1570    -3.7460 na         1 57G      -0.139100
     20 N10         -0.7020     0.0060    -1.2120 ns         1 57G      -0.469100
     21 N21          4.3300     1.5820     1.1960 n3         1 57G      -0.820500
     22 O9           1.0250    -0.8770    -2.2940 o          1 57G      -0.583100
     23 O19          4.2420    -0.5450     2.4460 o          1 57G      -0.630800
     24 O20          4.2400    -0.5440    -0.0540 o          1 57G      -0.630800
     25 O17         -2.0520     0.0010     1.2150 oh         1 57G      -0.511100
     26 S18          3.8400    -0.0010     1.1960 sy         1 57G       1.424200
     27 O1          -1.1120    -0.9260    -9.4460 oh         1 57G      -0.586800
     28 H1           1.9300    -0.0000    -0.9380 ha         1 57G       0.204000
     29 H2           0.9780    -3.6290    -5.7180 hc         1 57G       0.040367
     30 H3           0.0690    -3.3790    -4.2210 hc         1 57G       0.040367
     31 H4           1.8370    -3.3500    -4.1970 hc         1 57G       0.040367
     32 H5           1.6610    -1.1040    -4.3900 hc         1 57G       0.060200
     33 H6           1.2070    -1.4040    -6.0730 hc         1 57G       0.060200
     34 H7           3.9540     1.8080     3.2370 h1         1 57G       0.049200
     35 H8           4.2550     3.3190     2.3680 h1         1 57G       0.049200
     36 H9           6.5480     3.0680     2.4470 hc         1 57G       0.042533
     37 H10          6.1420     2.1750     3.9190 hc         1 57G       0.042533
     38 H11          6.4490     1.3020     2.4110 hc         1 57G       0.042533
     39 H12         -1.4670     0.5740    -8.0760 h1         1 57G       0.043200
     40 H13          0.1240    -0.1930    -7.9670 h1         1 57G       0.043200
     41 H14         -0.5300     0.0010     3.3450 ha         1 57G       0.139000
     42 H15          1.9340    -0.0000     3.3330 ha         1 57G       0.152000
     43 H16         -4.2840    -0.9350    -6.1510 hc         1 57G       0.056367
     44 H17         -3.8390     0.7720    -6.2820 hc         1 57G       0.056367
     45 H18         -4.6180     0.1710    -4.8110 hc         1 57G       0.056367
     46 H19          6.1220     2.1940    -1.5320 hc         1 57G       0.042533
     47 H20          6.4550     1.2960    -0.0440 hc         1 57G       0.042533
     48 H21          6.5500     3.0620    -0.0520 hc         1 57G       0.042533
     49 H22          4.2540     3.3190     0.0330 h1         1 57G       0.049200
     50 H23          3.9490     1.8150    -0.8470 h1         1 57G       0.049200
     51 H24         -2.7820     0.2370    -3.0330 hn         1 57G       0.296700
     52 H25         -1.6150     0.4130    -1.2590 hn         1 57G       0.324500
     53 H26         -2.3630    -0.3000     2.0530 ho         1 57G       0.434000
     54 H27         -0.8440    -0.2990   -10.0970 ho         1 57G       0.402000
     55 C2           0.9440    -1.5910    -5.0390 c3         1 57G      -0.022100
     56 C24          4.5480     2.2810     2.4650 c3         1 57G       0.238300
     57 C22          4.5460     2.2810    -0.0730 c3         1 57G       0.238300
@<TRIPOS>BOND
     1    17     7 1
     2     9    56 1
     3    24    26 2
     4     7    19 1
     5     7     6 2
     6    19     3 1
     7    56    21 1
     8    12    27 1
     9    12    10 1
    10    22     8 2
    11     6    10 1
    12     6     5 1
    13     3     8 1
    14     3     5 2
    15    21    26 1
    16    21    57 1
    17    10    11 2
    18    26    23 2
    19    26    16 1
    20     8    20 1
    21     5    55 1
    22     2    16 ar
    23     2     1 ar
    24    57    18 1
    25    16    14 ar
    26    20     1 1
    27    55     4 1
    28     1    15 ar
    29    14    13 ar
    30    15    13 ar
    31    15    25 1
    32     2    28 1
    33     4    29 1
    34     4    30 1
    35     4    31 1
    36    55    32 1
    37    55    33 1
    38    56    34 1
    39    56    35 1
    40     9    36 1
    41     9    37 1
    42     9    38 1
    43    12    39 1
    44    12    40 1
    45    13    41 1
    46    14    42 1
    47    17    43 1
    48    17    44 1
    49    17    45 1
    50    18    46 1
    51    18    47 1
    52    18    48 1
    53    57    49 1
    54    57    50 1
    55    19    51 1
    56    20    52 1
    57    25    53 1
    58    27    54 1
@<TRIPOS>SUBSTRUCTURE
     1 57G         1 TEMP              0 ****  ****    0 ROOT
