@<TRIPOS>MOLECULE
molecule
   12    11     1     0     0
SMALL
bcc


@<TRIPOS>ATOM
      1 PAG          0.0000     0.0000     0.0000 p5         1 57H       1.046700
      2 OAD          1.6100     0.0000     0.0000 o          1 57H      -0.914833
      3 OAB         -0.4940     0.0000     1.3950 o          1 57H      -0.914833
      4 CAF         -0.6080     1.4880    -0.8600 c3         1 57H      -0.221400
      5 O1          -0.5360    -1.3150    -0.7590 o          1 57H      -0.914833
      6 H2          -0.1760     2.3710    -0.4040 hc         1 57H       0.029200
      7 H3          -0.3210     1.4440    -1.9040 hc         1 57H       0.029200
      8 C1          -2.1100     1.5510    -0.7540 c2         1 57H      -0.028200
      9 C2          -2.6870     2.6200    -0.2610 c2         1 57H      -0.363000
     10 H4          -2.7130     0.7140    -1.0850 ha         1 57H       0.112000
     11 H6          -3.7670     2.6660    -0.1850 ha         1 57H       0.069500
     12 H7          -2.0840     3.4570     0.0700 ha         1 57H       0.069500
@<TRIPOS>BOND
     1     3     1 1
     2     4     1 1
     3     1     2 1
     4     1     5 1
     5     4     6 1
     6     4     7 1
     7     4     8 1
     8     8     9 2
     9     8    10 1
    10     9    11 1
    11     9    12 1
@<TRIPOS>SUBSTRUCTURE
     1 57H         1 TEMP              0 ****  ****    0 ROOT
