@<TRIPOS>MOLECULE
57J
   55    59     1     0     0
SMALL
bcc


@<TRIPOS>ATOM
      1 N3           0.0000     0.0000     0.0000 n          1 57J      -0.150800
      2 C4          -2.1580     0.8530    -0.7760 ca         1 57J      -0.188600
      3 N2          -6.3090    -1.0190    -1.2770 nc         1 57J      -0.634100
      4 C7          -4.9290     0.7340    -0.9440 ca         1 57J      -0.165200
      5 C6          -4.1610    -0.4410    -1.0820 ca         1 57J      -0.276900
      6 C9          -0.6860     0.9370    -0.6840 c          1 57J       0.618700
      7 C13         -0.1900    -1.0240     2.2070 c3         1 57J      -0.059400
      8 C20          0.9190    -5.9210     2.0260 ca         1 57J      -0.020300
      9 C21          1.2560    -4.7290     1.4140 ca         1 57J      -0.160000
     10 C8          -5.1110    -1.5290    -1.2930 cd         1 57J       0.443800
     11 C18          0.7720    -4.8280     4.1540 ca         1 57J       0.008000
     12 C16          1.2100    -2.3800     4.3380 c          1 57J       0.640700
     13 C19          0.6790    -5.9720     3.3900 ca         1 57J      -0.145300
     14 C2          -4.2920     1.9560    -0.7290 ca         1 57J      -0.116300
     15 C3          -2.9340     2.0160    -0.6470 ca         1 57J      -0.010000
     16 C5          -2.7700    -0.3740    -0.9960 ca         1 57J      -0.006000
     17 N1          -6.2410     0.3620    -1.0660 na         1 57J       0.419900
     18 O1          -0.0940     1.8520    -1.2240 o          1 57J      -0.648100
     19 C10          1.4690     0.0000     0.0000 c3         1 57J       0.037500
     20 C11          1.9640     0.0000     1.4500 c3         1 57J      -0.059400
     21 C12          1.3330    -1.1740     2.2010 c3         1 57J       0.168800
     22 C14         -0.7060    -1.0370     0.7650 c3         1 57J       0.037500
     23 C15          1.8440    -1.1850     3.6490 c3         1 57J      -0.153400
     24 C17          1.1090    -3.6180     3.5450 ca         1 57J      -0.281600
     25 C22          1.3560    -3.5660     2.1640 ca         1 57J       0.194100
     26 O3           1.6900    -2.4000     1.5640 os         1 57J      -0.298900
     27 C23          0.8120    -7.1770     1.2020 c3         1 57J       0.053200
     28 C24          0.3170    -7.2830     4.0390 c3         1 57J       0.068200
     29 H13         -0.6320    -1.8480     2.7540 hc         1 57J       0.037450
     30 H12         -0.4580    -0.0850     2.6770 hc         1 57J       0.037450
     31 H19          1.4410    -4.7030     0.3470 ha         1 57J       0.123000
     32 H7          -4.8640    -2.5740    -1.4370 h4         1 57J       0.014800
     33 H18          0.5840    -4.8680     5.2200 ha         1 57J       0.124000
     34 H3          -4.4520     4.0500    -0.3780 hc         1 57J       0.008033
     35 H4          -5.6560     3.3980    -1.4990 hc         1 57J       0.008033
     36 H2          -5.8080     3.0960     0.2380 hc         1 57J       0.008033
     37 H5          -2.4480     2.9700    -0.4810 ha         1 57J       0.123000
     38 H6          -2.1700    -1.2410    -1.2460 ha         1 57J       0.112000
     39 H1          -7.0260     0.9800    -1.0130 hn         1 57J       0.155700
     40 H9           1.8320     0.8870    -0.5060 h1         1 57J       0.042450
     41 H8           1.8320    -0.8870    -0.5060 h1         1 57J       0.042450
     42 H11          3.0420    -0.1020     1.4630 hc         1 57J       0.037450
     43 H10          1.6770     0.9290     1.9280 hc         1 57J       0.037450
     44 H14         -0.5170    -2.0060     0.3210 h1         1 57J       0.042450
     45 H15         -1.7700    -0.8300     0.7590 h1         1 57J       0.042450
     46 H17          2.9230    -1.2850     3.6570 hc         1 57J       0.053200
     47 H16          1.5480    -0.2710     4.1500 hc         1 57J       0.053200
     48 H21          1.5240    -7.9090     1.5650 hc         1 57J       0.013367
     49 H20         -0.1910    -7.5780     1.2830 hc         1 57J       0.013367
     50 H22          1.0270    -6.9480     0.1650 hc         1 57J       0.013367
     51 H23          0.1750    -7.1320     5.1030 hc         1 57J       0.009033
     52 H25          1.1150    -7.9980     3.8800 hc         1 57J       0.009033
     53 H24         -0.6000    -7.6610     3.6030 hc         1 57J       0.009033
     54 O2           0.8080    -2.3180     5.4800 o          1 57J      -0.553100
     55 C1          -5.1090     3.2130    -0.5820 c3         1 57J       0.066200
@<TRIPOS>BOND
     1     1     6 1   
     2     1    19 1   
     3     1    22 1   
     4     2     6 1   
     5     2    15 ar  
     6     2    16 ar  
     7     3    10 2   
     8     3    17 1   
     9     4     5 ar  
    10     4    14 ar  
    11     4    17 1   
    12     5    10 1   
    13     5    16 ar  
    14     6    18 2   
    15     7    21 1   
    16     7    22 1   
    17     7    29 1   
    18     7    30 1   
    19     8     9 ar  
    20     8    13 ar  
    21     8    27 1   
    22     9    25 ar  
    23     9    31 1   
    24    10    32 1   
    25    11    13 ar  
    26    11    24 ar  
    27    11    33 1   
    28    12    23 1   
    29    12    24 1   
    30    12    54 2   
    31    13    28 1   
    32    14    15 ar  
    33    14    55 1   
    34    15    37 1   
    35    16    38 1   
    36    17    39 1   
    37    19    20 1   
    38    19    40 1   
    39    19    41 1   
    40    20    21 1   
    41    20    42 1   
    42    20    43 1   
    43    21    23 1   
    44    21    26 1   
    45    22    44 1   
    46    22    45 1   
    47    23    46 1   
    48    23    47 1   
    49    24    25 ar  
    50    25    26 1   
    51    27    48 1   
    52    27    49 1   
    53    27    50 1   
    54    28    51 1   
    55    28    52 1   
    56    28    53 1   
    57    34    55 1   
    58    35    55 1   
    59    36    55 1   
@<TRIPOS>SUBSTRUCTURE
     1 57J         1 TEMP              0 ****  ****    0 ROOT
