@<TRIPOS>MOLECULE
57K
   56    59     1     0     0
SMALL
bcc


@<TRIPOS>ATOM
      1 N3           0.0000     0.0000     0.0000 n          1 57K      -0.150800
      2 C4          -2.1550     0.8770    -0.7600 ca         1 57K      -0.188600
      3 N2          -6.2990    -0.9730    -1.3900 nc         1 57K      -0.633100
      4 C7          -4.9240     0.7620    -0.9590 ca         1 57K      -0.165200
      5 C6          -4.1530    -0.4050    -1.1410 ca         1 57K      -0.275900
      6 C9          -0.6830     0.9580    -0.6570 c          1 57K       0.618700
      7 C13         -0.2350    -1.0660     2.1830 c3         1 57K      -0.018400
      8 C8          -5.1000    -1.4830    -1.4150 cd         1 57K       0.443800
      9 C18          1.5570    -5.1310     6.0880 c3         1 57K       0.194800
     10 C16          1.8400    -2.5280     1.8430 cy         1 57K       0.076500
     11 C19          0.2680    -5.8500     5.6840 c3         1 57K      -0.030433
     12 C2          -4.2910     1.9730    -0.6790 ca         1 57K      -0.116300
     13 C3          -2.9340     2.0300    -0.5820 ca         1 57K      -0.010000
     14 C5          -2.7640    -0.3410    -1.0400 ca         1 57K      -0.006000
     15 N1          -6.2340     0.3960    -1.1150 na         1 57K       0.419900
     16 O1          -0.0890     1.8890    -1.1640 o          1 57K      -0.647100
     17 C10          1.4690     0.0000     0.0000 c3         1 57K       0.034000
     18 C11          1.9620     0.0000     1.4520 c3         1 57K      -0.018400
     19 C12          1.2900    -1.1430     2.2080 cy         1 57K      -0.121000
     20 C14         -0.7140    -1.0560     0.7300 c3         1 57K       0.034000
     21 C15          1.8700    -1.3820     3.6090 cy         1 57K       0.076500
     22 N4           1.7830    -2.8190     3.2870 nj         1 57K      -0.188800
     23 C17          1.6890    -3.9470     4.0190 c          1 57K       0.733100
     24 O2           1.6330    -5.0280     3.4660 o          1 57K      -0.661000
     25 O3           1.6580    -3.8770     5.3630 os         1 57K      -0.416900
     26 H13         -0.5580    -0.1580     2.6760 hc         1 57K       0.028950
     27 H12         -0.6480    -1.9280     2.6930 hc         1 57K       0.028950
     28 H24          2.4470    -4.3410     7.8770 hc         1 57K       0.019478
     29 H23          0.6820    -4.2280     7.8300 hc         1 57K       0.019478
     30 H25          1.4610    -5.7870     8.1320 hc         1 57K       0.019478
     31 H27          2.8830    -6.7680     6.5170 hc         1 57K       0.019478
     32 H26          2.5980    -6.4960     4.7930 hc         1 57K       0.019478
     33 H28          3.6540    -5.4030     5.6990 hc         1 57K       0.019478
     34 H7          -4.8510    -2.5200    -1.6040 h4         1 57K       0.015800
     35 H18          2.8510    -2.4960     1.4540 h1         1 57K       0.033450
     36 H19          1.1460    -3.1220     1.2610 h1         1 57K       0.033450
     37 H21         -0.5410    -5.1320     5.6200 hc         1 57K       0.019478
     38 H22          0.4060    -6.3260     4.7210 hc         1 57K       0.019478
     39 H20          0.0260    -6.6010     6.4260 hc         1 57K       0.019478
     40 H2          -5.6760     3.4280    -1.3850 hc         1 57K       0.008367
     41 H3          -5.7930     3.0790     0.3460 hc         1 57K       0.008367
     42 H4          -4.4540     4.0560    -0.2710 hc         1 57K       0.008367
     43 H5          -2.4510     2.9750    -0.3650 ha         1 57K       0.123000
     44 H6          -2.1610    -1.1950    -1.3250 ha         1 57K       0.112000
     45 H1          -7.0210     1.0110    -1.0430 hn         1 57K       0.155700
     46 H9           1.8310    -0.8870    -0.5060 h1         1 57K       0.038700
     47 H8           1.8310     0.8870    -0.5060 h1         1 57K       0.038700
     48 H11          3.0360    -0.1380     1.4680 hc         1 57K       0.028950
     49 H10          1.7050     0.9430     1.9200 hc         1 57K       0.028950
     50 H14         -1.7790    -0.8590     0.7020 h1         1 57K       0.038700
     51 H15         -0.5050    -2.0160     0.2740 h1         1 57K       0.038700
     52 H17          2.8890    -1.0300     3.7140 h1         1 57K       0.033450
     53 H16          1.1990    -1.0820     4.4050 h1         1 57K       0.033450
     54 C1          -5.1110     3.2220    -0.4840 c3         1 57K       0.066200
     55 C20          1.5350    -4.8510     7.5910 c3         1 57K      -0.030433
     56 C21          2.7610    -6.0140     5.7490 c3         1 57K      -0.030433
@<TRIPOS>BOND
     1     1     6 1   
     2     1    17 1   
     3     1    20 1   
     4     2     6 1   
     5     2    13 ar  
     6     2    14 ar  
     7     3     8 2   
     8     3    15 1   
     9     4     5 ar  
    10     4    12 ar  
    11     4    15 1   
    12     5     8 1   
    13     5    14 ar  
    14     6    16 2   
    15     7    19 1   
    16     7    20 1   
    17     7    26 1   
    18     7    27 1   
    19     8    34 1   
    20     9    11 1   
    21     9    25 1   
    22     9    55 1   
    23     9    56 1   
    24    10    19 1   
    25    10    22 1   
    26    10    35 1   
    27    10    36 1   
    28    11    37 1   
    29    11    38 1   
    30    11    39 1   
    31    12    13 ar  
    32    12    54 1   
    33    13    43 1   
    34    14    44 1   
    35    15    45 1   
    36    17    18 1   
    37    17    46 1   
    38    17    47 1   
    39    18    19 1   
    40    18    48 1   
    41    18    49 1   
    42    19    21 1   
    43    20    50 1   
    44    20    51 1   
    45    21    22 1   
    46    21    52 1   
    47    21    53 1   
    48    22    23 1   
    49    23    24 2   
    50    23    25 1   
    51    28    55 1   
    52    29    55 1   
    53    30    55 1   
    54    31    56 1   
    55    32    56 1   
    56    33    56 1   
    57    40    54 1   
    58    41    54 1   
    59    42    54 1   
@<TRIPOS>SUBSTRUCTURE
     1 57K         1 TEMP              0 ****  ****    0 ROOT
