@<TRIPOS>MOLECULE
molecule
   65    68     1     0     0
SMALL
bcc


@<TRIPOS>ATOM
      1 N3           0.0000     0.0000     0.0000 n          1 57L      -0.489800
      2 C4           0.0330    -1.9060    -1.5350 ca         1 57L      -0.180600
      3 N2           3.0900    -3.4890    -4.5580 nc         1 57L      -0.497100
      4 C7           1.3650    -3.7510    -3.1300 ca         1 57L      -0.001200
      5 C6           1.7510    -2.3960    -3.1450 ca         1 57L      -0.265900
      6 C9          -0.6860    -0.9390    -0.6820 c          1 57L       0.682700
      7 C13         -0.2030     1.0400     2.1980 c3         1 57L      -0.086400
      8 C20          5.3290     3.8790     5.8360 c3         1 57L       0.176400
      9 C21          6.3860     4.9350     5.5060 c3         1 57L      -0.073000
     10 C8           2.8660    -2.2970    -4.0840 cd         1 57L       0.381800
     11 C18          0.7260     1.6620     4.5930 c3         1 57L      -0.114100
     12 C16          3.1140     2.7380     2.2920 c3         1 57L       0.099000
     13 C19          3.6360     2.5980     4.7440 c          1 57L       0.770100
     14 C2           0.3090    -4.1610    -2.3150 ca         1 57L      -0.119300
     15 C3          -0.3440    -3.2570    -1.5340 ca         1 57L      -0.038000
     16 C5           1.0790    -1.4720    -2.3420 ca         1 57L      -0.039000
     17 N1           2.1940    -4.4060    -3.9990 na         1 57L      -0.048100
     18 O1          -1.8970    -0.9900    -0.5930 o          1 57L      -0.606100
     19 C10          1.4690     0.0000     0.0000 c3         1 57L       0.099000
     20 C11          1.9610     0.0000     1.4520 c3         1 57L      -0.086400
     21 C12          1.3150     1.1560     2.2060 c3         1 57L      -0.076000
     22 C14         -0.7080     1.0460     0.7500 c3         1 57L       0.099000
     23 C15          1.7510     2.5040     1.5900 c3         1 57L      -0.094400
     24 N4           2.9300     2.2220     3.6600 n          1 57L      -0.485800
     25 C17          1.8460     1.2260     3.6470 c3         1 57L       0.142700
     26 O2           3.3970     2.1040     5.8280 o          1 57L      -0.613000
     27 O3           4.6080     3.5230     4.6260 os         1 57L      -0.439900
     28 C22          5.7030     6.1790     4.9330 c3         1 57L      -0.080767
     29 C23          7.1450     5.3120     6.7810 c3         1 57L      -0.080767
     30 C24          7.3660     4.3720     4.4770 c3         1 57L      -0.080767
     31 H12         -0.4960     0.1140     2.6780 hc         1 57L       0.058450
     32 H13         -0.6300     1.8810     2.7320 hc         1 57L       0.058450
     33 H25          4.6350     4.2780     6.5660 h1         1 57L       0.051700
     34 H24          5.8130     2.9990     6.2410 h1         1 57L       0.051700
     35 H7           3.4080    -1.3950    -4.3410 h4         1 57L       0.064800
     36 H21          0.3560     2.6340     4.2910 hc         1 57L       0.050367
     37 H22          1.1100     1.7190     5.6050 hc         1 57L       0.050367
     38 H23         -0.0810     0.9400     4.5540 hc         1 57L       0.050367
     39 H18          3.8970     2.1880     1.7850 h1         1 57L       0.050700
     40 H19          3.3460     3.7960     2.3190 h1         1 57L       0.050700
     41 H3           0.7520    -6.2280    -2.0620 hc         1 57L       0.045033
     42 H4          -0.8720    -5.7560    -1.5430 hc         1 57L       0.045033
     43 H2          -0.4970    -5.8860    -3.2670 hc         1 57L       0.045033
     44 H5          -1.1640    -3.5840    -0.9060 ha         1 57L       0.154000
     45 H6           1.2650    -0.4120    -2.4640 ha         1 57L       0.140000
     46 H1           2.1630    -5.3850    -4.2030 hn         1 57L       0.334700
     47 H8           1.8310     0.8870    -0.5060 h1         1 57L       0.060200
     48 H9           1.8310    -0.8870    -0.5050 h1         1 57L       0.060200
     49 H11          1.6880    -0.9360     1.9240 hc         1 57L       0.058450
     50 H10          3.0380     0.1170     1.4670 hc         1 57L       0.058450
     51 H14         -1.7720     0.8450     0.7360 h1         1 57L       0.060200
     52 H15         -0.5090     2.0120     0.3000 h1         1 57L       0.060200
     53 H16          1.8800     2.4160     0.5180 hc         1 57L       0.059700
     54 H17          1.0480     3.2890     1.8410 hc         1 57L       0.059700
     55 H20          2.2320     0.2580     3.9440 h1         1 57L       0.065700
     56 H28          4.8630     6.4520     5.5610 hc         1 57L       0.038367
     57 H27          6.4120     6.9980     4.9020 hc         1 57L       0.038367
     58 H26          5.3510     5.9680     3.9310 hc         1 57L       0.038367
     59 H29          6.4510     5.7120     7.5100 hc         1 57L       0.038367
     60 H30          7.8940     6.0590     6.5470 hc         1 57L       0.038367
     61 H31          7.6270     4.4310     7.1870 hc         1 57L       0.038367
     62 H32          7.7060     3.3950     4.7980 hc         1 57L       0.038367
     63 H34          8.2160     5.0380     4.3850 hc         1 57L       0.038367
     64 H33          6.8710     4.2840     3.5170 hc         1 57L       0.038367
     65 C1          -0.1060    -5.6100    -2.2960 c3         1 57L      -0.045800
@<TRIPOS>BOND
     1     3    17 1   
     2     3    10 2   
     3    17     4 1   
     4    10     5 1   
     5     4     5 ar  
     6     4    14 ar  
     7     5    16 ar  
     8    65    14 1   
     9    14    15 ar  
    10    16     2 ar  
    11    15     2 ar  
    12     2     6 1   
    13     6    18 2   
    14     6     1 1   
    15    19     1 1   
    16    19    20 1   
    17     1    22 1   
    18    22     7 1   
    19    20    21 1   
    20    23    21 1   
    21    23    12 1   
    22     7    21 1   
    23    21    25 1   
    24    12    24 1   
    25    30     9 1   
    26    24    25 1   
    27    24    13 1   
    28    25    11 1   
    29    27    13 1   
    30    27     8 1   
    31    13    26 2   
    32     9     8 1   
    33     9    28 1   
    34     9    29 1   
    35     7    31 1   
    36     7    32 1   
    37     8    33 1   
    38     8    34 1   
    39    10    35 1   
    40    11    36 1   
    41    11    37 1   
    42    11    38 1   
    43    12    39 1   
    44    12    40 1   
    45    65    41 1   
    46    65    42 1   
    47    65    43 1   
    48    15    44 1   
    49    16    45 1   
    50    17    46 1   
    51    19    47 1   
    52    19    48 1   
    53    20    49 1   
    54    20    50 1   
    55    22    51 1   
    56    22    52 1   
    57    23    53 1   
    58    23    54 1   
    59    25    55 1   
    60    28    56 1   
    61    28    57 1   
    62    28    58 1   
    63    29    59 1   
    64    29    60 1   
    65    29    61 1   
    66    30    62 1   
    67    30    63 1   
    68    30    64 1   
@<TRIPOS>SUBSTRUCTURE
     1 57L         1 TEMP              0 ****  ****    0 ROOT
