@<TRIPOS>MOLECULE
molecule
   40    43     1     0     0
SMALL
bcc


@<TRIPOS>ATOM
      1 C14          0.0000     0.0000     0.0000 cc         1 57N       0.538300
      2 C11         -2.1390     0.0010    -1.0230 c          1 57N       0.643100
      3 C10         -2.7090    -1.2280    -3.0780 ca         1 57N      -0.124300
      4 C01         -8.9460     0.7280    -0.9730 ca         1 57N      -0.141000
      5 C02         -7.8460     1.3080    -1.5710 ca         1 57N      -0.052000
      6 C03         -6.6220     0.6360    -1.5720 ca         1 57N      -0.158600
      7 C04         -6.5290    -0.6190    -0.9680 ca         1 57N      -0.081300
      8 C05         -7.6320    -1.1890    -0.3760 ca         1 57N      -0.118000
      9 C06         -8.8410    -0.5140    -0.3720 ca         1 57N      -0.099000
     10 C07         -5.2960     0.9860    -2.1160 c          1 57N       0.725100
     11 O08         -5.0380     2.0170    -2.7060 o          1 57N      -0.630500
     12 C09         -3.0020     0.0020    -2.2580 c3         1 57N       0.131000
     13 N12         -0.7960     0.0010    -1.1400 ns         1 57N      -0.510400
     14 O13         -2.6520     0.0010     0.0760 o          1 57N      -0.578100
     15 N15          1.2960     0.0000     0.0000 nd         1 57N      -0.741000
     16 C16          1.8940     0.0000     1.1770 cd         1 57N       0.390200
     17 C17          1.0630    -0.0000     2.2210 cc         1 57N      -0.251400
     18 S18         -0.5870     0.0070     1.6060 ss         1 57N      -0.087300
     19 C19         -2.9550    -2.4820    -2.5540 ca         1 57N      -0.113500
     20 C20         -2.6840    -3.6110    -3.3050 ca         1 57N      -0.124500
     21 C21         -2.1680    -3.4840    -4.5810 ca         1 57N      -0.113000
     22 C22         -1.9230    -2.2280    -5.1060 ca         1 57N      -0.124500
     23 C23         -2.1970    -1.1000    -4.3560 ca         1 57N      -0.113500
     24 C24         -5.0990    -1.0700    -1.1380 c3         1 57N       0.132300
     25 N25         -4.4140     0.0030    -1.8670 n          1 57N      -0.470800
     26 H2          -7.9320     2.2800    -2.0400 ha         1 57N       0.148000
     27 H3          -7.5530    -2.1610     0.0960 ha         1 57N       0.133000
     28 H4          -9.7090    -0.9630     0.0950 ha         1 57N       0.136000
     29 H5          -2.7910     0.8870    -2.8460 h1         1 57N       0.112700
     30 H6          -0.3730     0.0450    -2.0450 hn         1 57N       0.347500
     31 H7           2.9720    -0.0020     1.2860 h4         1 57N       0.042100
     32 H8           1.3520     0.0000     3.2650 h4         1 57N       0.179000
     33 H9          -3.3590    -2.5820    -1.5540 ha         1 57N       0.138500
     34 H10         -2.8770    -4.5940    -2.8940 ha         1 57N       0.136500
     35 H11         -1.9550    -4.3680    -5.1700 ha         1 57N       0.135000
     36 H12         -1.5200    -2.1290    -6.1070 ha         1 57N       0.136500
     37 H13         -2.0050    -0.1170    -4.7670 ha         1 57N       0.138500
     38 H14         -5.0660    -1.9890    -1.7110 h1         1 57N       0.074700
     39 H15         -4.6380    -1.2130    -0.1680 h1         1 57N       0.074700
     40 H1          -9.8940     1.2510    -0.9670 ha         1 57N       0.137000
@<TRIPOS>BOND
     1    17    18 1   
     2    17    16 2   
     3    18     1 1   
     4    16    15 1   
     5    14     2 2   
     6    20    19 ar  
     7    20    21 ar  
     8     1    15 2   
     9     1    13 1   
    10    19     3 ar  
    11     8     9 ar  
    12     8     7 ar  
    13    21    22 ar  
    14    24     7 1   
    15    24    25 1   
    16     2    13 1   
    17     2    12 1   
    18     9     4 ar  
    19     7     6 ar  
    20     3    12 1   
    21     3    23 ar  
    22    25    12 1   
    23    25    10 1   
    24    22    23 ar  
    25     4     5 ar  
    26     6    10 1   
    27     6     5 ar  
    28    10    11 2   
    29     4    40 1   
    30     5    26 1   
    31     8    27 1   
    32     9    28 1   
    33    12    29 1   
    34    13    30 1   
    35    16    31 1   
    36    17    32 1   
    37    19    33 1   
    38    20    34 1   
    39    21    35 1   
    40    22    36 1   
    41    23    37 1   
    42    24    38 1   
    43    24    39 1   
@<TRIPOS>SUBSTRUCTURE
     1 57N         1 TEMP              0 ****  ****    0 ROOT
