@<TRIPOS>MOLECULE
molecule
   24    24     1     0     0
SMALL
bcc


@<TRIPOS>ATOM
      1 CAA          0.0000     0.0000     0.0000 c3         1 57O      -0.024800
      2 CAB          4.3680     0.0010    -2.5010 c3         1 57O      -0.035800
      3 CAM          4.2340     0.0000     0.0000 ca         1 57O       0.546600
      4 OAD          7.5680    -1.6520     0.0810 o          1 57O      -0.838800
      5 OAC          5.4670    -2.3340     0.0330 o          1 57O      -0.838800
      6 CAI          6.2490    -1.4130     0.0490 c          1 57O       0.897600
      7 CAG          5.7400     0.0070     0.0350 c3         1 57O      -0.248700
      8 NAH          3.5560     0.0000     1.1330 nb         1 57O      -0.768000
      9 CAL          2.2330    -0.0000     1.1530 ca         1 57O       0.655600
     10 CAJ          1.5060     0.0000    -0.0280 ca         1 57O      -0.279600
     11 CAN          2.1880     0.0010    -1.2390 ca         1 57O       0.151100
     12 OAF          1.5130     0.0020    -2.4170 oh         1 57O      -0.520100
     13 CAK          3.5830     0.0010    -1.2150 ca         1 57O      -0.247600
     14 H1          -0.3760    -0.6590    -0.7740 hc         1 57O       0.035367
     15 H2          -0.3430    -0.3470     0.9670 hc         1 57O       0.035367
     16 H3          -0.3650     1.0050    -0.1730 hc         1 57O       0.035367
     17 H4           4.8720     0.9530    -2.6160 hc         1 57O       0.044700
     18 H5           3.6940    -0.1540    -3.3350 hc         1 57O       0.044700
     19 H6           5.1010    -0.7960    -2.4760 hc         1 57O       0.044700
     20 H8           6.1190     0.5170    -0.8420 hc         1 57O       0.050700
     21 H9           6.0790     0.5210     0.9260 hc         1 57O       0.050700
     22 H10          1.3380     0.8910    -2.6780 ho         1 57O       0.408000
     23 H12          2.2010     0.1120     3.0430 ho         1 57O       0.432000
     24 OAE          1.5800    -0.0010     2.3430 oh         1 57O      -0.628300
@<TRIPOS>BOND
     1     5     6 1
     2     6     4 1
     3     6     7 1
     4     7     3 1
     5     3     8 ar
     6     3    13 ar
     7     8     9 ar
     8     2    13 1
     9    13    11 ar
    10     9    24 1
    11     9    10 ar
    12    11    10 ar
    13    11    12 1
    14    10     1 1
    15     1    14 1
    16     1    15 1
    17     1    16 1
    18     2    17 1
    19     2    18 1
    20     2    19 1
    21     7    20 1
    22     7    21 1
    23    12    22 1
    24    24    23 1
@<TRIPOS>SUBSTRUCTURE
     1 57O         1 TEMP              0 ****  ****    0 ROOT
