@<TRIPOS>MOLECULE
molecule
   51    55     1     0     0
SMALL
bcc


@<TRIPOS>ATOM
      1 C8           0.0000     0.0000     0.0000 ca         1 57P      -0.089800
      2 C2           3.9780    -1.1040    -2.5710 ca         1 57P      -0.136500
      3 C4           2.3560    -0.0000    -1.1850 ca         1 57P       0.014200
      4 C5           2.3980     1.1100    -2.0280 ca         1 57P      -0.118500
      5 C6           3.2250     1.1050    -3.1320 ca         1 57P      -0.136500
      6 C11         -2.6870     0.0110     0.6470 ca         1 57P      -0.128000
      7 C1           4.0140     0.0000    -3.4030 ca         1 57P      -0.145000
      8 C22          0.8440     1.4400     4.0980 c3         1 57P      -0.203400
      9 C24         -3.3300     0.0170    -1.7730 cx         1 57P      -0.069400
     10 C25         -4.3040     1.1950    -1.8130 cx         1 57P      -0.144400
     11 O1           0.8300     0.3940     6.2090 o          1 57P      -0.848300
     12 C23          0.8700     1.4390     5.6040 c          1 57P       0.893600
     13 O2           0.9390     2.6000     6.2760 o          1 57P      -0.848300
     14 N            0.7450    -0.0010     2.1240 na         1 57P      -0.035400
     15 C14          1.8610     0.0000     1.3230 cc         1 57P       0.032700
     16 C15          3.2570    -0.0010     1.8020 ca         1 57P      -0.030800
     17 C16          4.1470     0.9880     1.3740 ca         1 57P      -0.098500
     18 C17          5.4500     0.9810     1.8260 ca         1 57P      -0.131500
     19 C18          5.8770    -0.0020     2.7010 ca         1 57P      -0.126000
     20 C19          5.0020    -0.9840     3.1290 ca         1 57P      -0.131500
     21 C20          3.6940    -0.9870     2.6900 ca         1 57P      -0.098500
     22 C7           1.4700     0.0000     0.0000 cd         1 57P      -0.139400
     23 C3           3.1540    -1.1110    -1.4640 ca         1 57P      -0.118500
     24 C13         -0.3950    -0.0000     1.3490 ca         1 57P      -0.032200
     25 C9          -0.9630     0.0050    -1.0100 ca         1 57P      -0.081000
     26 C10         -2.2900     0.0110    -0.6830 ca         1 57P      -0.089300
     27 C12         -1.7520     0.0010     1.6600 ca         1 57P      -0.121000
     28 C26         -4.7880    -0.1830    -1.3600 cx         1 57P      -0.144400
     29 H1           4.5980    -1.9650    -2.7890 ha         1 57P       0.119500
     30 H2           1.7810     1.9760    -1.8170 ha         1 57P       0.137000
     31 H3           3.2580     1.9670    -3.7870 ha         1 57P       0.119500
     32 H4          -3.7420     0.0190     0.8920 ha         1 57P       0.125000
     33 H5           4.6620     0.0010    -4.2710 ha         1 57P       0.116000
     34 H6          -0.1400    -0.4670     3.9610 h1         1 57P       0.071200
     35 H7           1.6270    -0.5560     3.9380 h1         1 57P       0.071200
     36 H8          -0.0210     1.9930     3.7520 hc         1 57P       0.044200
     37 H9           1.7450     1.9070     3.7210 hc         1 57P       0.044200
     38 H10         -3.0730    -0.3920    -2.7430 hc         1 57P       0.075700
     39 H11         -4.6260     1.5020    -2.8010 hc         1 57P       0.071950
     40 H12         -4.1820     1.9300    -1.0270 hc         1 57P       0.071950
     41 H14          3.8140     1.7580     0.6890 ha         1 57P       0.139500
     42 H15          6.1410     1.7470     1.4950 ha         1 57P       0.125000
     43 H16          6.9030    -0.0030     3.0510 ha         1 57P       0.120000
     44 H17          5.3430    -1.7500     3.8160 ha         1 57P       0.125000
     45 H18          3.0100    -1.7570     3.0250 ha         1 57P       0.139500
     46 H19          3.1270    -1.9760    -0.8120 ha         1 57P       0.137000
     47 H20         -0.6590     0.0050    -2.0500 ha         1 57P       0.125000
     48 H21         -2.0720     0.0010     2.6950 ha         1 57P       0.140000
     49 H22         -5.4060    -0.7180    -2.0710 hc         1 57P       0.071950
     50 H23         -4.9630    -0.2910    -0.2960 hc         1 57P       0.071950
     51 C21          0.7640    -0.0010     3.5880 c3         1 57P       0.042300
@<TRIPOS>BOND
     1    28    10 1
     2    28     9 1
     3    10     9 1
     4     9    26 1
     5    26     6 ar
     6    26    25 ar
     7     6    27 ar
     8    25     1 ar
     9    27    24 ar
    10     1    24 ar
    11     1    22 1
    12     2    23 ar
    13     2     7 ar
    14    23     3 ar
    15    24    14 1
    16     7     5 ar
    17     3    22 1
    18     3     4 ar
    19    22    15 2
    20     5     4 ar
    21    14    15 1
    22    14    51 1
    23    15    16 1
    24    51     8 1
    25     8    12 1
    26    11    12 1
    27    12    13 1
    28    16    17 ar
    29    16    21 ar
    30    17    18 ar
    31    21    20 ar
    32    18    19 ar
    33    20    19 ar
    34     2    29 1
    35     4    30 1
    36     5    31 1
    37     6    32 1
    38     7    33 1
    39    51    34 1
    40    51    35 1
    41     8    36 1
    42     8    37 1
    43     9    38 1
    44    10    39 1
    45    10    40 1
    46    17    41 1
    47    18    42 1
    48    19    43 1
    49    20    44 1
    50    21    45 1
    51    23    46 1
    52    25    47 1
    53    27    48 1
    54    28    49 1
    55    28    50 1
@<TRIPOS>SUBSTRUCTURE
     1 57P         1 TEMP              0 ****  ****    0 ROOT
