@<TRIPOS>MOLECULE
molecule
   34    36     1     0     0
SMALL
bcc


@<TRIPOS>ATOM
      1 O1           0.0000     0.0000     0.0000 o          1 57Q      -0.845300
      2 C17          1.2080     0.0000     0.0000 c          1 57Q       0.889600
      3 O2           1.8790     0.0000     1.1630 o          1 57Q      -0.845300
      4 C16          1.9610    -0.0060    -1.3060 c3         1 57Q      -0.214400
      5 C15          0.9660    -0.0110    -2.4680 c3         1 57Q       0.036300
      6 N            1.6960     0.0830    -3.7350 na         1 57Q      -0.046400
      7 C14          2.1310     1.2550    -4.3130 ca         1 57Q      -0.024200
      8 C13          2.0410     2.5930    -3.9420 ca         1 57Q      -0.124000
      9 C12          2.5890     3.5660    -4.7490 ca         1 57Q      -0.129000
     10 C11          3.2320     3.2270    -5.9320 ca         1 57Q      -0.170000
     11 C10          3.3330     1.9190    -6.3160 ca         1 57Q      -0.091000
     12 C9           2.7840     0.9150    -5.5140 ca         1 57Q      -0.111800
     13 C8           2.7140    -0.5410    -5.6210 cc         1 57Q      -0.213200
     14 C7           2.0550    -0.9870    -4.5230 cd         1 57Q       0.011700
     15 C4           1.7620    -2.4040    -4.2210 ca         1 57Q      -0.029800
     16 C3           1.7160    -3.3450    -5.2500 ca         1 57Q      -0.120000
     17 C2           1.4430    -4.6670    -4.9610 ca         1 57Q      -0.132500
     18 C5           1.5370    -2.8080    -2.9040 ca         1 57Q      -0.120000
     19 C6           1.2710    -4.1330    -2.6270 ca         1 57Q      -0.132500
     20 C1           1.2160    -5.0590    -3.6530 ca         1 57Q      -0.138000
     21 H2           2.5840    -0.8910    -1.3590 hc         1 57Q       0.045700
     22 H3           2.5840     0.8780    -1.3670 hc         1 57Q       0.045700
     23 H4           0.3930    -0.9300    -2.4490 h1         1 57Q       0.074700
     24 H5           0.2960     0.8350    -2.3740 h1         1 57Q       0.074700
     25 H6           1.5420     2.8680    -3.0210 ha         1 57Q       0.140000
     26 H7           2.5170     4.6070    -4.4570 ha         1 57Q       0.119000
     27 H8           3.6570     4.0040    -6.5550 ha         1 57Q       0.112000
     28 H9           3.8360     1.6620    -7.2410 ha         1 57Q       0.114000
     29 H10          3.1180    -1.1490    -6.4210 ha         1 57Q       0.142000
     30 H11          1.8930    -3.0390    -6.2730 ha         1 57Q       0.156000
     31 H12          1.4020    -5.3970    -5.7600 ha         1 57Q       0.127500
     32 H13          1.5800    -2.0840    -2.0990 ha         1 57Q       0.156000
     33 H14          1.0940    -4.4470    -1.6060 ha         1 57Q       0.127500
     34 H15          1.0040    -6.0980    -3.4310 ha         1 57Q       0.117000
@<TRIPOS>BOND
     1     1     2 1   
     2     3     2 1   
     3     2     4 1   
     4    19    18 ar  
     5    19    20 ar  
     6     4     5 1   
     7    18    15 ar  
     8    20    17 ar  
     9     5     6 1   
    10    17    16 ar  
    11    15    16 ar  
    12    15    14 1   
    13     6    14 1   
    14     6     7 1   
    15    14    13 2   
    16     8     7 ar  
    17     8     9 ar  
    18     7    12 ar  
    19    13    12 1   
    20     9    10 ar  
    21    12    11 ar  
    22    10    11 ar  
    23     4    21 1   
    24     4    22 1   
    25     5    23 1   
    26     5    24 1   
    27     8    25 1   
    28     9    26 1   
    29    10    27 1   
    30    11    28 1   
    31    13    29 1   
    32    16    30 1   
    33    17    31 1   
    34    18    32 1   
    35    19    33 1   
    36    20    34 1   
@<TRIPOS>SUBSTRUCTURE
     1 57Q         1 TEMP              0 ****  ****    0 ROOT
