@<TRIPOS>MOLECULE
molecule
   53    55     1     0     0
SMALL
bcc


@<TRIPOS>ATOM
      1 O1           1.4290     0.0000     0.0000 oh         1 57R      -0.595800
      2 C1          -1.7370    -3.2900    -8.7040 c3         1 57R       0.127700
      3 C2          -0.4220    -2.7450    -6.8000 ca         1 57R       0.158100
      4 N1          -0.5710    -1.5240    -1.9960 na         1 57R       0.149400
      5 C3          -1.4940    -1.9920    -6.3450 ca         1 57R      -0.191000
      6 C4          -1.4020    -1.3140    -5.1440 ca         1 57R      -0.058000
      7 O2          -0.6800    -3.7460     1.8930 os         1 57R      -0.428900
      8 C5          -0.2420    -1.3860    -4.3970 ca         1 57R      -0.152300
      9 O3          -2.7720    -4.4570     1.6880 o          1 57R      -0.605000
     10 C6           0.8280    -2.1370    -4.8470 ca         1 57R      -0.058000
     11 C7           0.7410    -2.8160    -6.0470 ca         1 57R      -0.191000
     12 C16         -1.6180    -4.7100     1.9710 c          1 57R       0.754100
     13 N4          -1.2770    -5.9520     2.3620 ns         1 57R      -0.569900
     14 C17         -2.2970    -7.0000     2.4470 c3         1 57R       0.131700
     15 C18         -2.4830    -7.6440     1.0710 c3         1 57R      -0.110600
     16 C19         -1.8520    -8.0650     3.4520 c3         1 57R      -0.110600
     17 C13         -1.1200    -2.4300     1.4640 c3         1 57R       0.164800
     18 C14         -0.2240    -1.3560     2.0940 c3         1 57R      -0.084400
     19 C15         -0.5170     0.0000     1.4440 c3         1 57R      -0.093400
     20 C10          0.0000     0.0000     0.0000 c3         1 57R       0.228100
     21 C9          -0.5160     1.2400    -0.7320 c3         1 57R      -0.133100
     22 C11         -0.5080    -1.2420    -0.6830 cc         1 57R      -0.239900
     23 C12         -1.0080    -2.3210    -0.0340 cd         1 57R       0.274600
     24 N3          -1.3520    -3.2030    -0.9680 nd         1 57R      -0.336000
     25 N2          -1.0810    -2.7030    -2.1260 nc         1 57R      -0.191800
     26 C8          -0.1430    -0.6450    -3.0870 c3         1 57R       0.111600
     27 H1           1.7430     0.8430     0.2830 ho         1 57R       0.406000
     28 H2          -2.5500    -3.6700    -8.0970 h1         1 57R       0.043033
     29 H3          -1.6700    -3.8660    -9.6200 h1         1 57R       0.043033
     30 H4          -1.9210    -2.2500    -8.9440 h1         1 57R       0.043033
     31 H5          -2.4040    -1.9350    -6.9310 ha         1 57R       0.142500
     32 H6          -2.2400    -0.7250    -4.7890 ha         1 57R       0.135500
     33 H7           1.7360    -2.1920    -4.2590 ha         1 57R       0.135500
     34 H8           1.5800    -3.4040    -6.3990 ha         1 57R       0.142500
     35 H9          -0.3250    -6.1600     2.5940 hn         1 57R       0.320500
     36 H10         -3.2340    -6.5660     2.7720 h1         1 57R       0.078700
     37 H11         -1.5130    -7.8200     0.6210 hc         1 57R       0.044033
     38 H12         -3.0600    -6.9810     0.4380 hc         1 57R       0.044033
     39 H13         -3.0070    -8.5850     1.1810 hc         1 57R       0.044033
     40 H14         -1.6460    -7.5970     4.4070 hc         1 57R       0.044033
     41 H15         -2.6390    -8.7990     3.5730 hc         1 57R       0.044033
     42 H16         -0.9560    -8.5530     3.0880 hc         1 57R       0.044033
     43 H17         -2.1480    -2.2680     1.7640 h1         1 57R       0.086700
     44 H18          0.8150    -1.6140     1.9320 hc         1 57R       0.066200
     45 H19         -0.4260    -1.2960     3.1560 hc         1 57R       0.066200
     46 H20         -1.5920     0.1360     1.4180 hc         1 57R       0.059200
     47 H21          0.0220     0.7610     1.9960 hc         1 57R       0.059200
     48 H22          0.1630     1.4910    -1.5380 hc         1 57R       0.048700
     49 H23         -0.5760     2.0700    -0.0390 hc         1 57R       0.048700
     50 H24         -1.4990     1.0360    -1.1380 hc         1 57R       0.048700
     51 H25         -0.7820     0.2290    -3.1180 h1         1 57R       0.070200
     52 H26          0.8820    -0.3380    -2.9230 h1         1 57R       0.070200
     53 O4          -0.5090    -3.4080    -7.9830 os         1 57R      -0.326900
@<TRIPOS>BOND
     1    53     2 1   
     2    53     3 1   
     3     5     3 ar  
     4     5     6 ar  
     5     3    11 ar  
     6     6     8 ar  
     7    11    10 ar  
     8     8    10 ar  
     9     8    26 1   
    10    26     4 1   
    11     4    25 1   
    12     4    22 1   
    13     1    20 1   
    14    25    24 2   
    15    21    20 1   
    16    22    20 1   
    17    22    23 2   
    18    20    19 1   
    19    24    23 1   
    20    23    17 1   
    21    19    18 1   
    22    18    17 1   
    23    17     7 1   
    24     7    12 1   
    25    12     9 2   
    26    12    13 1   
    27    15    14 1   
    28    13    14 1   
    29    14    16 1   
    30     1    27 1   
    31     2    28 1   
    32     2    29 1   
    33     2    30 1   
    34     5    31 1   
    35     6    32 1   
    36    10    33 1   
    37    11    34 1   
    38    13    35 1   
    39    14    36 1   
    40    15    37 1   
    41    15    38 1   
    42    15    39 1   
    43    16    40 1   
    44    16    41 1   
    45    16    42 1   
    46    17    43 1   
    47    18    44 1   
    48    18    45 1   
    49    19    46 1   
    50    19    47 1   
    51    21    48 1   
    52    21    49 1   
    53    21    50 1   
    54    26    51 1   
    55    26    52 1   
@<TRIPOS>SUBSTRUCTURE
     1 57R         1 TEMP              0 ****  ****    0 ROOT
