@<TRIPOS>MOLECULE
57R
   53    55     1     0     0
SMALL
bcc


@<TRIPOS>ATOM
      1 O1           1.4290     0.0000     0.0000 oh         1 57R      -0.584800
      2 C1          -1.7370    -3.2900    -8.7040 c3         1 57R       0.243700
      3 C2          -0.4220    -2.7450    -6.8000 ca         1 57R       0.168100
      4 N1          -0.5710    -1.5240    -1.9960 na         1 57R       0.632400
      5 C3          -1.4940    -1.9920    -6.3450 ca         1 57R      -0.175000
      6 C4          -1.4020    -1.3140    -5.1440 ca         1 57R      -0.024500
      7 O2          -0.6800    -3.7460     1.8930 os         1 57R      -0.412900
      8 C5          -0.2420    -1.3860    -4.3970 ca         1 57R      -0.165300
      9 O3          -2.7720    -4.4570     1.6880 o          1 57R      -0.651000
     10 C6           0.8280    -2.1370    -4.8470 ca         1 57R      -0.024500
     11 C7           0.7410    -2.8160    -6.0470 ca         1 57R      -0.175000
     12 C16         -1.6180    -4.7100     1.9710 c          1 57R       0.684100
     13 N4          -1.2770    -5.9520     2.3620 ns         1 57R      -0.169900
     14 C17         -2.2970    -7.0000     2.4470 c3         1 57R       0.028700
     15 C18         -2.4830    -7.6440     1.0710 c3         1 57R      -0.015100
     16 C19         -1.8520    -8.0650     3.4520 c3         1 57R      -0.015100
     17 C13         -1.1200    -2.4300     1.4640 c3         1 57R       0.205800
     18 C14         -0.2240    -1.3560     2.0940 c3         1 57R      -0.039400
     19 C15         -0.5170     0.0000     1.4440 c3         1 57R      -0.043400
     20 C10          0.0000     0.0000     0.0000 c3         1 57R       0.271100
     21 C9          -0.5160     1.2400    -0.7320 c3         1 57R      -0.056100
     22 C11         -0.5080    -1.2420    -0.6830 cc         1 57R      -0.444900
     23 C12         -1.0080    -2.3210    -0.0340 cd         1 57R       0.257600
     24 N3          -1.3520    -3.2030    -0.9680 nd         1 57R      -0.282000
     25 N2          -1.0810    -2.7030    -2.1260 nc         1 57R      -0.379800
     26 C8          -0.1430    -0.6450    -3.0870 c3         1 57R       0.023600
     27 H1           1.7430     0.8430     0.2830 ho         1 57R       0.396000
     28 H2          -2.5500    -3.6700    -8.0970 h1         1 57R      -0.001633
     29 H3          -1.6700    -3.8660    -9.6200 h1         1 57R      -0.001633
     30 H4          -1.9210    -2.2500    -8.9440 h1         1 57R      -0.001633
     31 H5          -2.4040    -1.9350    -6.9310 ha         1 57R       0.121000
     32 H6          -2.2400    -0.7250    -4.7890 ha         1 57R       0.103500
     33 H7           1.7360    -2.1920    -4.2590 ha         1 57R       0.103500
     34 H8           1.5800    -3.4040    -6.3990 ha         1 57R       0.121000
     35 H9          -0.3250    -6.1600     2.5940 hn         1 57R       0.173500
     36 H10         -3.2340    -6.5660     2.7720 h1         1 57R       0.054700
     37 H11         -1.5130    -7.8200     0.6210 hc         1 57R       0.011533
     38 H12         -3.0600    -6.9810     0.4380 hc         1 57R       0.011533
     39 H13         -3.0070    -8.5850     1.1810 hc         1 57R       0.011533
     40 H14         -1.6460    -7.5970     4.4070 hc         1 57R       0.011533
     41 H15         -2.6390    -8.7990     3.5730 hc         1 57R       0.011533
     42 H16         -0.9560    -8.5530     3.0880 hc         1 57R       0.011533
     43 H17         -2.1480    -2.2680     1.7640 h1         1 57R       0.049700
     44 H18          0.8150    -1.6140     1.9320 hc         1 57R       0.032200
     45 H19         -0.4260    -1.2960     3.1560 hc         1 57R       0.032200
     46 H20         -1.5920     0.1360     1.4180 hc         1 57R       0.029200
     47 H21          0.0220     0.7610     1.9960 hc         1 57R       0.029200
     48 H22          0.1630     1.4910    -1.5380 hc         1 57R       0.019033
     49 H23         -0.5760     2.0700    -0.0390 hc         1 57R       0.019033
     50 H24         -1.4990     1.0360    -1.1380 hc         1 57R       0.019033
     51 H25         -0.7820     0.2290    -3.1180 h1         1 57R       0.042200
     52 H26          0.8820    -0.3380    -2.9230 h1         1 57R       0.042200
     53 O4          -0.5090    -3.4080    -7.9830 os         1 57R      -0.306900
@<TRIPOS>BOND
     1     1    20 1   
     2     1    27 1   
     3     2    28 1   
     4     2    29 1   
     5     2    30 1   
     6     2    53 1   
     7     3     5 ar  
     8     3    11 ar  
     9     3    53 1   
    10     4    22 1   
    11     4    25 1   
    12     4    26 1   
    13     5     6 ar  
    14     5    31 1   
    15     6     8 ar  
    16     6    32 1   
    17     7    12 1   
    18     7    17 1   
    19     8    10 ar  
    20     8    26 1   
    21     9    12 2   
    22    10    11 ar  
    23    10    33 1   
    24    11    34 1   
    25    12    13 1   
    26    13    14 1   
    27    13    35 1   
    28    14    15 1   
    29    14    16 1   
    30    14    36 1   
    31    15    37 1   
    32    15    38 1   
    33    15    39 1   
    34    16    40 1   
    35    16    41 1   
    36    16    42 1   
    37    17    18 1   
    38    17    23 1   
    39    17    43 1   
    40    18    19 1   
    41    18    44 1   
    42    18    45 1   
    43    19    20 1   
    44    19    46 1   
    45    19    47 1   
    46    20    21 1   
    47    20    22 1   
    48    21    48 1   
    49    21    49 1   
    50    21    50 1   
    51    22    23 2   
    52    23    24 1   
    53    24    25 2   
    54    26    51 1   
    55    26    52 1   
@<TRIPOS>SUBSTRUCTURE
     1 57R         1 TEMP              0 ****  ****    0 ROOT
