@<TRIPOS>MOLECULE
molecule
   36    37     1     0     0
SMALL
bcc


@<TRIPOS>ATOM
      1 CAD          0.0000     0.0000     0.0000 ca         1 57T      -0.173750
      2 CAC          1.3790     0.0000     0.0000 ca         1 57T      -0.088000
      3 CAB          2.0740     0.0000     1.1970 ca         1 57T       0.009400
      4 IAT          4.1700    -0.0000     1.1850 i          1 57T      -0.268900
      5 CAA          1.3930     0.0010     2.4030 ca         1 57T      -0.088000
      6 CAF          0.0140     0.0000     2.4200 ca         1 57T      -0.173750
      7 CAE         -0.6960     0.0010     1.2140 ca         1 57T       0.017700
      8 CAG         -2.1660     0.0070     1.2220 ce         1 57T      -0.448200
      9 CAH         -2.8420    -0.7180     2.1510 cf         1 57T       0.218400
     10 CAI         -2.1110    -1.6080     3.0640 c          1 57T       0.852300
     11 OAR         -1.8910    -1.2570     4.2080 o          1 57T      -0.785300
     12 OAQ         -1.6830    -2.8110     2.6340 o          1 57T      -0.785300
     13 SAJ         -4.5960    -0.5900     2.2600 ss         1 57T      -0.099100
     14 SAK         -5.0370     0.8840     0.9050 ss         1 57T      -0.099100
     15 CAL         -5.1450     0.0030    -0.6170 cf         1 57T       0.218400
     16 CAN         -5.0900    -1.4650    -0.6220 c          1 57T       0.852300
     17 OAP         -5.1730    -2.1400    -1.7880 o          1 57T      -0.785300
     18 OAO         -4.9700    -2.0740     0.4240 o          1 57T      -0.785300
     19 CAM         -5.2790     0.6810    -1.7850 ce         1 57T      -0.448200
     20 CAS         -5.4840     2.1370    -1.7710 ca         1 57T       0.017700
     21 CAU         -4.7420     2.9600    -2.6250 ca         1 57T      -0.173750
     22 CAV         -4.9450     4.3240    -2.6100 ca         1 57T      -0.088000
     23 CAW         -5.8800     4.8790    -1.7520 ca         1 57T       0.009400
     24 IAZ         -6.1800     6.9520    -1.7370 i          1 57T      -0.268900
     25 CAX         -6.6190     4.0700    -0.9030 ca         1 57T      -0.088000
     26 CAY         -6.4280     2.7050    -0.9070 ca         1 57T      -0.173750
     27 H1          -0.5430     0.0000    -0.9370 ha         1 57T       0.154750
     28 H2           1.9190    -0.0010    -0.9390 ha         1 57T       0.116250
     29 H3           1.9450     0.0010     3.3360 ha         1 57T       0.116250
     30 H4          -0.5170     0.0010     3.3640 ha         1 57T       0.154750
     31 H5          -1.6020    -0.7840     0.7430 ha         1 57T       0.269500
     32 H8          -4.4440     1.3670    -1.7060 ha         1 57T       0.269500
     33 H9          -4.0110     2.5270    -3.2960 ha         1 57T       0.154750
     34 H10         -4.3710     4.9630    -3.2700 ha         1 57T       0.116250
     35 H11         -7.3480     4.5120    -0.2350 ha         1 57T       0.116250
     36 H12         -7.0060     2.0740    -0.2430 ha         1 57T       0.154750
@<TRIPOS>BOND
     1    24    23 1
     2    22    23 ar
     3    22    21 ar
     4    23    25 ar
     5    21    20 ar
     6    25    26 ar
     7    20    26 ar
     8    20    19 1
     9    19    15 2
    10    18    16 1
    11    15    16 1
    12    15    14 1
    13    16    17 1
    14    14    13 1
    15    11    10 1
    16    10    12 1
    17    10     9 1
    18    13     9 1
    19     9     8 2
    20     2     1 ar
    21     2     3 ar
    22     1     7 ar
    23     4     3 1
    24     3     5 ar
    25     8     7 1
    26     7     6 ar
    27     5     6 ar
    28     1    27 1
    29     2    28 1
    30     5    29 1
    31     6    30 1
    32     8    31 1
    33    19    32 1
    34    21    33 1
    35    22    34 1
    36    25    35 1
    37    26    36 1
@<TRIPOS>SUBSTRUCTURE
     1 57T         1 TEMP              0 ****  ****    0 ROOT
