@<TRIPOS>MOLECULE
57T
   36    37     1     0     0
SMALL
bcc


@<TRIPOS>ATOM
      1 CAD         0.5650   -1.0070    0.3810 ca        1 57T     -0.145500
      2 CAC         1.9500   -1.0830    0.4700 ca        1 57T     -0.105250
      3 CAB         2.5880   -0.8000    1.6790 ca        1 57T     -0.008600
      4 IAT         4.6100   -0.9040    1.8050 i         1 57T     -0.230900
      5 CAA         1.8320   -0.4460    2.7950 ca        1 57T     -0.105250
      6 CAF         0.4440   -0.3700    2.7100 ca        1 57T     -0.145500
      7 CAE        -0.2140   -0.6520    1.5020 ca        1 57T      0.042200
      8 CAG        -1.6490   -0.5650    1.3270 ce        1 57T     -0.192700
      9 CAH        -2.6190   -0.6880    2.2460 cf        1 57T     -0.010600
     10 CAI        -2.3970   -0.9440    3.7430 c         1 57T      0.915800
     11 OAR        -2.1480    0.0610    4.4700 o         1 57T     -0.809550
     12 OAQ        -2.4610   -2.1260    4.1700 o         1 57T     -0.809550
     13 SAJ        -4.2680   -0.6270    1.8850 ss        1 57T     -0.116100
     14 SAK        -4.6900    0.9120    0.4940 ss        1 57T     -0.116100
     15 CAL        -4.7220    0.4690   -1.1260 ce        1 57T     -0.010600
     16 CAN        -4.1140   -0.8480   -1.6480 c         1 57T      0.915800
     17 OAP        -2.8570   -0.9270   -1.6730 o         1 57T     -0.809550
     18 OAO        -4.9100   -1.7270   -2.0670 o         1 57T     -0.809550
     19 CAM        -5.2600    1.2690   -2.0770 cf        1 57T     -0.192700
     20 CAS        -5.8780    2.5630   -1.9540 ca        1 57T      0.042200
     21 CAU        -6.6060    3.0660   -3.0570 ca        1 57T     -0.145500
     22 CAV        -7.2300    4.3040   -3.0050 ca        1 57T     -0.105250
     23 CAW        -7.1420    5.0860   -1.8510 ca        1 57T     -0.008600
     24 IAZ        -8.0560    6.8910   -1.7780 i         1 57T     -0.230900
     25 CAX        -6.4200    4.6140   -0.7560 ca        1 57T     -0.105250
     26 CAY        -5.7930    3.3710   -0.8060 ca        1 57T     -0.145500
     27 H1          0.0560   -1.2270   -0.5730 ha        1 57T      0.163750
     28 H2          2.5340   -1.3670   -0.4170 ha        1 57T      0.120500
     29 H3          2.3210   -0.2250    3.7550 ha        1 57T      0.120500
     30 H4         -0.1530   -0.0900    3.6000 ha        1 57T      0.163750
     31 H5         -1.9490   -0.4050    0.2630 ha        1 57T      0.152000
     32 H8         -5.2490    0.8690   -3.1110 ha        1 57T      0.152000
     33 H9         -6.6820    2.4550   -3.9690 ha        1 57T      0.163750
     34 H10        -7.7940    4.6640   -3.8780 ha        1 57T      0.120500
     35 H11        -6.3370    5.2180    0.1600 ha        1 57T      0.120500
     36 H12        -5.2120    3.0340    0.0710 ha        1 57T      0.163750
@<TRIPOS>BOND
     1    1    2 ar  
     2    1    7 ar  
     3    1   27 1   
     4    2    3 ar  
     5    2   28 1   
     6    3    4 1   
     7    3    5 ar  
     8    5    6 ar  
     9    5   29 1   
    10    6    7 ar  
    11    6   30 1   
    12    7    8 1   
    13    8    9 2   
    14    8   31 1   
    15    9   10 1   
    16    9   13 1   
    17   10   11 1   
    18   10   12 1   
    19   13   14 1   
    20   14   15 1   
    21   15   16 1   
    22   15   19 2   
    23   16   17 1   
    24   16   18 1   
    25   19   20 1   
    26   19   32 1   
    27   20   21 ar  
    28   20   26 ar  
    29   21   22 ar  
    30   21   33 1   
    31   22   23 ar  
    32   22   34 1   
    33   23   24 1   
    34   23   25 ar  
    35   25   26 ar  
    36   25   35 1   
    37   26   36 1   
@<TRIPOS>SUBSTRUCTURE
     1 57T         1 TEMP              0 ****  ****    0 ROOT
