@<TRIPOS>MOLECULE
molecule
   32    33     1     0     0
SMALL
bcc


@<TRIPOS>ATOM
      1 C8           0.0000     0.0000     0.0000 cc         1 57U       0.581300
      2 C6           1.7220     0.0000     1.7620 cd         1 57U      -0.065400
      3 C5           2.9190     0.0010     2.6200 cd         1 57U      -0.045300
      4 C4           4.0990    -0.6320     2.3550 cc         1 57U      -0.185000
      5 C3           4.9640    -0.3730     3.4300 cc         1 57U      -0.208000
      6 C2           4.3010     0.4020     4.3140 cd         1 57U      -0.153300
      7 N1           3.0480     0.6420     3.8260 na         1 57U      -0.149100
      8 C10          0.4390     0.0110     2.1870 cc         1 57U       0.387600
      9 C14         -2.1360    -0.0010    -1.0270 c          1 57U       0.770100
     10 C11          0.0600     0.0150     3.6450 c3         1 57U       0.112100
     11 O18         -2.6540    -0.0010     0.0740 o          1 57U      -0.586100
     12 N15         -2.9060    -0.0010    -2.1330 ns         1 57U      -0.604900
     13 C16         -4.3650    -0.0010    -2.0100 c3         1 57U       0.129000
     14 C17         -4.9950    -0.0020    -3.4040 c3         1 57U      -0.114100
     15 N13         -0.7930    -0.0010    -1.1400 ns         1 57U      -0.542400
     16 S7           1.7100     0.0000     0.0000 ss         1 57U      -0.199300
     17 N9          -0.4510     0.0060     1.2160 nc         1 57U      -0.669000
     18 O12         -0.0500     1.3630     4.1040 oh         1 57U      -0.616800
     19 H1           4.3260    -1.2250     1.4770 ha         1 57U       0.149000
     20 H2           5.9810    -0.7330     3.5320 ha         1 57U       0.147000
     21 H3           4.6980     0.7750     5.2510 h4         1 57U       0.165000
     22 H4           2.3410     1.1890     4.2760 hn         1 57U       0.313700
     23 H5           0.8210    -0.5000     4.2180 h1         1 57U       0.050200
     24 H6          -0.8910    -0.4880     3.7720 h1         1 57U       0.050200
     25 H7          -2.4800    -0.0010    -3.0380 hn         1 57U       0.304500
     26 H8          -4.6810    -0.8850    -1.4700 h1         1 57U       0.055200
     27 H9          -4.6820     0.8840    -1.4710 h1         1 57U       0.055200
     28 H10         -4.6790     0.8830    -3.9440 hc         1 57U       0.043033
     29 H11         -6.0750    -0.0020    -3.3120 hc         1 57U       0.043033
     30 H12         -4.6790    -0.8860    -3.9430 hc         1 57U       0.043033
     31 H13         -0.3670    -0.0010    -2.0450 hn         1 57U       0.327500
     32 H14         -0.7610     1.4290     4.7190 ho         1 57U       0.411000
@<TRIPOS>BOND
     1    18    10 1   
     2    10     8 1   
     3    17     8 1   
     4    17     1 2   
     5     8     2 2   
     6    15     1 1   
     7    15     9 1   
     8     1    16 1   
     9    12     9 1   
    10    12    13 1   
    11     9    11 2   
    12     2    16 1   
    13     2     3 1   
    14     7     3 1   
    15     7     6 1   
    16    14    13 1   
    17     3     4 2   
    18     6     5 2   
    19     4     5 1   
    20     4    19 1   
    21     5    20 1   
    22     6    21 1   
    23     7    22 1   
    24    10    23 1   
    25    10    24 1   
    26    12    25 1   
    27    13    26 1   
    28    13    27 1   
    29    14    28 1   
    30    14    29 1   
    31    14    30 1   
    32    15    31 1   
    33    18    32 1   
@<TRIPOS>SUBSTRUCTURE
     1 57U         1 TEMP              0 ****  ****    0 ROOT
