@<TRIPOS>MOLECULE
57V
   41    45     1     0     0
SMALL
bcc


@<TRIPOS>ATOM
      1 O            0.0000     0.0000     0.0000 o          1 57V      -0.393000
      2 C1           2.1510     0.0010     3.5990 c3         1 57V      -0.126000
      3 C8          -4.3620    -0.0050    -3.2160 c3         1 57V      -0.015000
      4 C7          -2.9140    -0.0030    -2.9500 c2         1 57V       0.043000
      5 C5          -0.5980    -0.0040    -3.7100 c3         1 57V       0.044000
      6 C4           1.1950    -0.0010    -2.3690 c2         1 57V      -0.188000
      7 C3           1.2150     0.0000     0.0000 c2         1 57V       0.174000
      8 C2           1.1570     0.0000     2.4360 c3         1 57V      -0.050000
      9 N1           1.8890     0.0000     1.1670 ns         1 57V      -0.030000
     10 C9          -5.2830    -0.0040    -2.1580 c2         1 57V      -0.148000
     11 C10         -6.6320    -0.0050    -2.4630 c2         1 57V      -0.111000
     12 C14          0.0700    -0.0040    -6.1570 c2         1 57V      -0.194000
     13 N2           1.8890    -0.0010    -1.1670 ns         1 57V       0.147000
     14 C13          0.3450    -0.0030    -4.7150 c2         1 57V      -0.318000
     15 C12         -4.8450     0.0010    -4.5290 c2         1 57V      -0.134000
     16 C11         -7.0270    -0.0050    -3.7900 c2         1 57V      -0.119000
     17 S            1.9390    -0.0010    -3.9640 ss         1 57V       0.215000
     18 N5           0.8100     0.6330    -7.1250 na         1 57V       0.407000
     19 C17          0.2370     0.3910    -8.3400 c2         1 57V      -0.314000
     20 C16         -0.8530    -0.3870    -8.1600 c2         1 57V      -0.168000
     21 C15         -0.9740    -0.6460    -6.7860 c2         1 57V      -0.151000
     22 N3          -0.0940     0.0030    -2.4820 n2         1 57V      -0.050000
     23 N4          -6.1390     0.0070    -4.7660 n2         1 57V      -0.013000
     24 H1           1.6090     0.0010     4.5370 hc         1 57V       0.047667
     25 H2           2.7740    -0.8840     3.5420 hc         1 57V       0.047667
     26 H3           2.7740     0.8850     3.5410 hc         1 57V       0.047667
     27 H4          -3.4830     0.8710    -3.2420 DU         1 57V       0.059000
     28 H5          -1.4730     0.8710    -3.6830 DU         1 57V       0.070000
     29 H6           0.5340     0.8850     2.4930 h1         1 57V       0.065500
     30 H7           0.5340    -0.8840     2.4940 h1         1 57V       0.065500
     31 H8           2.8900     0.0010     1.1670 hn         1 57V       0.080000
     32 H9          -4.9460    -0.0040    -1.1290 ha         1 57V       0.126000
     33 H10         -7.3730    -0.0100    -1.6720 ha         1 57V       0.110000
     34 H11          2.8900    -0.0350    -1.1670 hn         1 57V       0.080000
     35 H12         -4.1470     0.0110    -5.3570 h4         1 57V       0.137000
     36 H13         -8.0830    -0.0030    -4.0310 h4         1 57V       0.118000
     37 H14          1.6310     1.1810    -6.9660 hn         1 57V       0.061000
     38 H15          0.5970     0.7620    -9.2920 h4         1 57V       0.142000
     39 H16         -1.5150    -0.7460    -8.9380 ha         1 57V       0.125000
     40 H17         -1.7440    -1.2410    -6.3100 ha         1 57V       0.137000
     41 C6          -2.0410    -0.0040    -3.9750 c2         1 57V      -0.028000
@<TRIPOS>BOND
     1     1     7 1   
     2     2     8 1   
     3     2    24 1   
     4     2    25 1   
     5     2    26 1   
     6     3     4 1   
     7     3    10 1   
     8     3    15 1   
     9     3    27 1   
    10     4    27 1   
    11     4    41 1   
    12     5    14 1   
    13     5    22 1   
    14     5    28 1   
    15     5    41 1   
    16     6    13 1   
    17     6    17 1   
    18     6    22 1   
    19     7     9 1   
    20     7    13 1   
    21     8     9 1   
    22     8    29 1   
    23     8    30 1   
    24     9    31 1   
    25    10    11 1   
    26    10    32 1   
    27    11    16 1   
    28    11    33 1   
    29    12    14 1   
    30    12    18 1   
    31    12    21 1   
    32    13    34 1   
    33    14    17 1   
    34    15    23 1   
    35    15    35 1   
    36    16    23 1   
    37    16    36 1   
    38    18    19 1   
    39    18    37 1   
    40    19    20 1   
    41    19    38 1   
    42    20    21 1   
    43    20    39 1   
    44    21    40 1   
    45    28    41 1   
@<TRIPOS>SUBSTRUCTURE
     1 57V         1 TEMP              0 ****  ****    0 ROOT
