@<TRIPOS>MOLECULE
molecule
   41    43     1     0     0
SMALL
bcc


@<TRIPOS>ATOM
      1 O            0.0000     0.0000     0.0000 o          1 57V      -0.589100
      2 C1           2.1510     0.0010     3.5990 c3         1 57V      -0.114100
      3 C8          -4.3620    -0.0050    -3.2160 ca         1 57V      -0.186100
      4 C7          -2.9140    -0.0030    -2.9500 ce         1 57V      -0.073200
      5 C5          -0.5980    -0.0040    -3.7100 cd         1 57V       0.467100
      6 C4           1.1950    -0.0010    -2.3690 cc         1 57V       0.624300
      7 C3           1.2150     0.0000     0.0000 c          1 57V       0.773100
      8 C2           1.1570     0.0000     2.4360 c3         1 57V       0.129000
      9 N1           1.8890     0.0000     1.1670 ns         1 57V      -0.603900
     10 C9          -5.2830    -0.0040    -2.1580 ca         1 57V      -0.078000
     11 C10         -6.6320    -0.0050    -2.4630 ca         1 57V      -0.256300
     12 C14          0.0700    -0.0040    -6.1570 cc         1 57V      -0.043300
     13 N2           1.8890    -0.0010    -1.1670 ns         1 57V      -0.543400
     14 C13          0.3450    -0.0030    -4.7150 cc         1 57V      -0.070400
     15 C12         -4.8450     0.0010    -4.5290 ca         1 57V       0.423200
     16 C11         -7.0270    -0.0050    -3.7900 ca         1 57V       0.416200
     17 S            1.9390    -0.0010    -3.9640 ss         1 57V      -0.286300
     18 N5           0.8100     0.6330    -7.1250 na         1 57V      -0.156100
     19 C17          0.2370     0.3910    -8.3400 cc         1 57V      -0.152300
     20 C16         -0.8530    -0.3870    -8.1600 cd         1 57V      -0.203000
     21 C15         -0.9740    -0.6460    -6.7860 cd         1 57V      -0.178000
     22 N3          -0.0940     0.0030    -2.4820 nd         1 57V      -0.672000
     23 N4          -6.1390     0.0070    -4.7660 nb         1 57V      -0.691000
     24 H1           2.7740    -0.8840     3.5420 hc         1 57V       0.043700
     25 H2           1.6090     0.0010     4.5370 hc         1 57V       0.043700
     26 H3           2.7740     0.8850     3.5420 hc         1 57V       0.043700
     27 H4          -2.5510    -0.0030    -1.9290 ha         1 57V       0.169000
     28 H5          -2.4040    -0.0050    -4.9960 ha         1 57V       0.149000
     29 H6           0.5340     0.8850     2.4930 h1         1 57V       0.055700
     30 H7           0.5340    -0.8840     2.4940 h1         1 57V       0.055700
     31 H8           2.8900     0.0010     1.1670 hn         1 57V       0.305500
     32 H9          -4.9460    -0.0040    -1.1290 ha         1 57V       0.144000
     33 H10         -7.3730    -0.0100    -1.6720 ha         1 57V       0.137000
     34 H11          2.8900    -0.0350    -1.1670 hn         1 57V       0.328500
     35 H12         -4.1470     0.0110    -5.3570 h4         1 57V       0.027100
     36 H13         -8.0830    -0.0030    -4.0310 h4         1 57V       0.020100
     37 H14          1.6310     1.1810    -6.9660 hn         1 57V       0.296700
     38 H15          0.5970     0.7620    -9.2920 h4         1 57V       0.165000
     39 H16         -1.5150    -0.7460    -8.9380 ha         1 57V       0.151000
     40 H17         -1.7440    -1.2410    -6.3100 ha         1 57V       0.156000
     41 C6          -2.0410    -0.0040    -3.9750 cf         1 57V      -0.227800
@<TRIPOS>BOND
     1    23    16 ar
     2    23    15 ar
     3    16    11 ar
     4    15     3 ar
     5    11    10 ar
     6     3    10 ar
     7     3     4 1
     8     4    41 2
     9    22     5 1
    10    22     6 2
    11    13     6 1
    12    13     7 1
    13    41     5 1
    14     9     8 1
    15     9     7 1
    16     5    14 2
    17     6    17 1
    18     8     2 1
    19     7     1 2
    20    14    17 1
    21    14    12 1
    22    12    18 1
    23    12    21 2
    24    18    19 1
    25    21    20 1
    26    19    20 2
    27     2    24 1
    28     2    25 1
    29     2    26 1
    30     4    27 1
    31    41    28 1
    32     8    29 1
    33     8    30 1
    34     9    31 1
    35    10    32 1
    36    11    33 1
    37    13    34 1
    38    15    35 1
    39    16    36 1
    40    18    37 1
    41    19    38 1
    42    20    39 1
    43    21    40 1
@<TRIPOS>SUBSTRUCTURE
     1 57V         1 TEMP              0 ****  ****    0 ROOT
