@<TRIPOS>MOLECULE
molecule
   45    48     1     0     0
SMALL
bcc


@<TRIPOS>ATOM
      1 O            0.0000     0.0000     0.0000 o          1 57W      -0.669100
      2 C1           2.1510    -0.0020     3.5990 c3         1 57W      -0.114100
      3 C8           3.2910    -0.0020    -5.4700 ca         1 57W       0.411200
      4 C7           1.7730     0.0010    -3.7310 ca         1 57W       0.410100
      5 C6           0.6860    -0.0010    -4.6270 ca         1 57W      -0.126500
      6 C5          -0.1530     0.0010    -2.5380 cc         1 57W      -0.109100
      7 C4           1.1860     0.0020    -2.3860 cd         1 57W      -0.090200
      8 C3           1.2160     0.0000     0.0000 c          1 57W       0.785100
      9 C2           1.1570    -0.0020     2.4360 c3         1 57W       0.128000
     10 N1           1.8900     0.0000     1.1670 ns         1 57W      -0.599900
     11 C9           2.2650    -0.0090    -6.4190 cp         1 57W      -0.153300
     12 C10          0.9370    -0.0090    -5.9930 ca         1 57W      -0.073000
     13 C14          4.1620    -0.0020    -9.6630 ca         1 57W      -0.251300
     14 N2           1.8900     0.0010    -1.1670 ns         1 57W      -0.464100
     15 C13          3.0950    -0.0220   -10.5440 ca         1 57W       0.417200
     16 C12          1.5670    -0.0250    -8.8190 ca         1 57W       0.427200
     17 C11          2.5860    -0.0180    -7.8680 cp         1 57W      -0.150300
     18 N4           3.0240    -0.0000    -4.1840 nb         1 57W      -0.666000
     19 C15          3.9150    -0.0000    -8.3010 ca         1 57W      -0.089000
     20 N5           1.8520    -0.0310   -10.1050 nb         1 57W      -0.688000
     21 N3          -0.4700     0.0010    -3.8740 na         1 57W      -0.086200
     22 C16         -1.7650     0.0020    -4.3920 ca         1 57W       0.544800
     23 N6          -1.9470     0.0020    -5.7030 nb         1 57W      -0.737000
     24 C20         -3.1550     0.0010    -6.2330 ca         1 57W       0.454200
     25 C19         -4.2800     0.0010    -5.4330 ca         1 57W      -0.281300
     26 C18         -4.1320     0.0000    -4.0530 ca         1 57W      -0.064000
     27 C17         -2.8530    -0.0050    -3.5260 ca         1 57W      -0.271300
     28 H1           1.6090     0.0010     4.5370 hc         1 57W       0.043700
     29 H2           2.7720    -0.8880     3.5430 hc         1 57W       0.043700
     30 H3           2.7760     0.8810     3.5400 hc         1 57W       0.043700
     31 H4           4.3230    -0.0020    -5.8000 h4         1 57W       0.024100
     32 H5          -0.8710    -0.0000    -1.7270 h4         1 57W       0.226000
     33 H6           0.5340     0.8820     2.4940 h1         1 57W       0.053200
     34 H7           0.5350    -0.8870     2.4920 h1         1 57W       0.053200
     35 H8           2.8910    -0.0180     1.1670 hn         1 57W       0.311500
     36 H9           0.1230    -0.0140    -6.7080 ha         1 57W       0.171000
     37 H10          5.1790     0.0080   -10.0350 ha         1 57W       0.138000
     38 H11          2.8900     0.0390    -1.1670 hn         1 57W       0.334500
     39 H12          3.2840    -0.0250   -11.6110 h4         1 57W       0.022100
     40 H13          0.5330    -0.0330    -8.4970 h4         1 57W       0.031100
     41 H14          4.7310     0.0150    -7.5890 ha         1 57W       0.140000
     42 H15         -3.2660     0.0020    -7.3110 h4         1 57W       0.028100
     43 H16         -5.2680     0.0030    -5.8770 ha         1 57W       0.142000
     44 H17         -4.9990    -0.0030    -3.4030 ha         1 57W       0.144000
     45 H18         -2.7010    -0.0060    -2.4540 ha         1 57W       0.155000
@<TRIPOS>BOND
     1    25    24 ar  
     2    25    26 ar  
     3    24    23 ar  
     4    26    27 ar  
     5    23    22 ar  
     6    27    22 ar  
     7    22    21 1   
     8     1     8 2   
     9    21     6 1   
    10    21     5 1   
    11     6     7 2   
    12     9     2 1   
    13     9    10 1   
    14     8    10 1   
    15     8    14 1   
    16     5    12 ar  
    17     5     4 ar  
    18     7    14 1   
    19     7     4 1   
    20    12    11 ar  
    21     4    18 ar  
    22    11    17 1   
    23    11     3 ar  
    24    18     3 ar  
    25    17    16 ar  
    26    17    19 ar  
    27    16    20 ar  
    28    19    13 ar  
    29    20    15 ar  
    30    13    15 ar  
    31     2    28 1   
    32     2    29 1   
    33     2    30 1   
    34     3    31 1   
    35     6    32 1   
    36     9    33 1   
    37     9    34 1   
    38    10    35 1   
    39    12    36 1   
    40    13    37 1   
    41    14    38 1   
    42    15    39 1   
    43    16    40 1   
    44    19    41 1   
    45    24    42 1   
    46    25    43 1   
    47    26    44 1   
    48    27    45 1   
@<TRIPOS>SUBSTRUCTURE
     1 57W         1 TEMP              0 ****  ****    0 ROOT
