@<TRIPOS>MOLECULE
57W
   45    48     1     0     0
SMALL
bcc


@<TRIPOS>ATOM
      1 O            0.0000     0.0000     0.0000 o          1 57W      -0.716100
      2 C1           2.1510    -0.0020     3.5990 c3         1 57W      -0.009100
      3 C8           3.2910    -0.0020    -5.4700 ca         1 57W       0.377200
      4 C7           1.7730     0.0010    -3.7310 ca         1 57W       0.358100
      5 C6           0.6860    -0.0010    -4.6270 ca         1 57W      -0.306500
      6 C5          -0.1530     0.0010    -2.5380 cc         1 57W      -0.299100
      7 C4           1.1860     0.0020    -2.3860 cd         1 57W      -0.232200
      8 C3           1.2160     0.0000     0.0000 c          1 57W       0.561100
      9 C2           1.1570    -0.0020     2.4360 c3         1 57W       0.066000
     10 N1           1.8900     0.0000     1.1670 ns         1 57W      -0.219900
     11 C9           2.2650    -0.0090    -6.4190 cp         1 57W      -0.143300
     12 C10          0.9370    -0.0090    -5.9930 ca         1 57W      -0.050000
     13 C14          4.1620    -0.0020    -9.6630 ca         1 57W      -0.217300
     14 N2           1.8900     0.0010    -1.1670 ns         1 57W       0.000900
     15 C13          3.0950    -0.0220   -10.5440 ca         1 57W       0.399200
     16 C12          1.5670    -0.0250    -8.8190 ca         1 57W       0.402200
     17 C11          2.5860    -0.0180    -7.8680 cp         1 57W      -0.137300
     18 N4           3.0240    -0.0000    -4.1840 nb         1 57W      -0.539000
     19 C15          3.9150    -0.0000    -8.3010 ca         1 57W      -0.072000
     20 N5           1.8520    -0.0310   -10.1050 nb         1 57W      -0.579000
     21 N3          -0.4700     0.0010    -3.8740 na         1 57W       0.438800
     22 C16         -1.7650     0.0020    -4.3920 ca         1 57W       0.320800
     23 N6          -1.9470     0.0020    -5.7030 nb         1 57W      -0.612000
     24 C20         -3.1550     0.0010    -6.2330 ca         1 57W       0.433200
     25 C19         -4.2800     0.0010    -5.4330 ca         1 57W      -0.244300
     26 C18         -4.1320     0.0000    -4.0530 ca         1 57W      -0.034000
     27 C17         -2.8530    -0.0050    -3.5260 ca         1 57W      -0.243300
     28 H1           1.6090     0.0010     4.5370 hc         1 57W       0.007700
     29 H2           2.7720    -0.8880     3.5430 hc         1 57W       0.007700
     30 H3           2.7760     0.8810     3.5400 hc         1 57W       0.007700
     31 H4           4.3230    -0.0020    -5.8000 h4         1 57W      -0.014900
     32 H5          -0.8710    -0.0000    -1.7270 h4         1 57W       0.211000
     33 H6           0.5340     0.8820     2.4940 h1         1 57W       0.024200
     34 H7           0.5350    -0.8870     2.4920 h1         1 57W       0.024200
     35 H8           2.8910    -0.0180     1.1670 hn         1 57W       0.170500
     36 H9           0.1230    -0.0140    -6.7080 ha         1 57W       0.147000
     37 H10          5.1790     0.0080   -10.0350 ha         1 57W       0.112000
     38 H11          2.8900     0.0390    -1.1670 hn         1 57W       0.166500
     39 H12          3.2840    -0.0250   -11.6110 h4         1 57W      -0.021900
     40 H13          0.5330    -0.0330    -8.4970 h4         1 57W      -0.008900
     41 H14          4.7310     0.0150    -7.5890 ha         1 57W       0.116000
     42 H15         -3.2660     0.0020    -7.3110 h4         1 57W      -0.017900
     43 H16         -5.2680     0.0030    -5.8770 ha         1 57W       0.117000
     44 H17         -4.9990    -0.0030    -3.4030 ha         1 57W       0.111000
     45 H18         -2.7010    -0.0060    -2.4540 ha         1 57W       0.137000
@<TRIPOS>BOND
     1     1     8 2   
     2     2     9 1   
     3     2    28 1   
     4     2    29 1   
     5     2    30 1   
     6     3    11 ar  
     7     3    18 ar  
     8     3    31 1   
     9     4     5 ar  
    10     4     7 1   
    11     4    18 ar  
    12     5    12 ar  
    13     5    21 1   
    14     6     7 2   
    15     6    21 1   
    16     6    32 1   
    17     7    14 1   
    18     8    10 1   
    19     8    14 1   
    20     9    10 1   
    21     9    33 1   
    22     9    34 1   
    23    10    35 1   
    24    11    12 ar  
    25    11    17 1   
    26    12    36 1   
    27    13    15 ar  
    28    13    19 ar  
    29    13    37 1   
    30    14    38 1   
    31    15    20 ar  
    32    15    39 1   
    33    16    17 ar  
    34    16    20 ar  
    35    16    40 1   
    36    17    19 ar  
    37    19    41 1   
    38    21    22 1   
    39    22    23 ar  
    40    22    27 ar  
    41    23    24 ar  
    42    24    25 ar  
    43    24    42 1   
    44    25    26 ar  
    45    25    43 1   
    46    26    27 ar  
    47    26    44 1   
    48    27    45 1   
@<TRIPOS>SUBSTRUCTURE
     1 57W         1 TEMP              0 ****  ****    0 ROOT
