@<TRIPOS>MOLECULE
57X
   39    42     1     0     0
SMALL
bcc


@<TRIPOS>ATOM
      1 C1           0.0000     0.0000     0.0000 cc         1 57X      -0.262200
      2 C6           1.3610     0.0000     0.0000 cd         1 57X       0.052800
      3 C5           2.0470     0.0000     1.2310 cd         1 57X      -0.341100
      4 C4           1.3260     0.0010     2.4270 cc         1 57X      -0.216700
      5 C2          -0.7000     0.0000     1.2190 c          1 57X       0.613700
      6 C9           3.4660     0.0000     1.6000 cd         1 57X       0.516800
      7 C10          4.6130    -0.0000     0.6720 cd         1 57X      -0.136900
      8 C14          5.7970     0.6230     0.8730 cc         1 57X       0.385200
      9 C12          6.3250    -0.2240    -1.1220 cd         1 57X       0.535900
     10 O24         -1.9210     0.0010     1.2120 o          1 57X      -0.692500
     11 N3          -0.0430     0.0010     2.3940 n          1 57X       0.111000
     12 C21         -0.7990     0.0020     3.6500 c3         1 57X       0.004000
     13 C22         -1.0630    -1.4410     4.0860 c3         1 57X      -0.046400
     14 C23         -1.8520    -1.4400     5.3970 c3         1 57X       0.011900
     15 N7           2.2270     0.0010     3.4390 na         1 57X       0.430400
     16 N8           3.5230    -0.0000     2.9130 nc         1 57X      -0.625800
     17 N13          6.6770     0.4870    -0.0880 nc         1 57X      -0.565000
     18 S11          4.6840    -0.8190    -0.8870 ss         1 57X      -0.303300
     19 C15          7.1710    -0.4930    -2.3030 ca         1 57X      -0.254800
     20 C20          8.4660     0.0340    -2.3850 ca         1 57X      -0.028000
     21 C19          9.2190    -0.2480    -3.5130 ca         1 57X      -0.226300
     22 C18          8.6720    -1.0330    -4.5120 ca         1 57X       0.416200
     23 N17          7.4490    -1.5160    -4.4070 nb         1 57X      -0.581000
     24 C16          6.6960    -1.2800    -3.3520 ca         1 57X       0.420200
     25 H1          -0.5420     0.0640    -0.9360 ha         1 57X       0.141000
     26 H2           1.9100    -0.0000    -0.9340 ha         1 57X       0.115000
     27 H3           6.0040     1.1960     1.7690 h4         1 57X       0.011100
     28 H4          -1.7430     0.5130     3.5030 h1         1 57X       0.041200
     29 H5          -0.2270     0.5120     4.4150 h1         1 57X       0.041200
     30 H6          -0.1190    -1.9520     4.2340 hc         1 57X       0.024200
     31 H7          -1.6350    -1.9510     3.3210 hc         1 57X       0.024200
     32 H8          -2.0330    -2.4610     5.7110 hc         1 57X       0.004700
     33 H9          -1.2840    -0.9230     6.1610 hc         1 57X       0.004700
     34 H10         -2.7990    -0.9350     5.2480 hc         1 57X       0.004700
     35 H11          2.0000     0.0010     4.4140 hn         1 57X       0.155700
     36 H12          8.8690     0.6470    -1.5880 ha         1 57X       0.128000
     37 H13         10.2240     0.1420    -3.6120 ha         1 57X       0.117000
     38 H14          9.2580    -1.2540    -5.3960 h4         1 57X      -0.019900
     39 H15          5.6970    -1.6950    -3.3030 h4         1 57X      -0.010900
@<TRIPOS>BOND
     1     1     2 2   
     2     1     5 1   
     3     1    25 1   
     4     2     3 1   
     5     2    26 1   
     6     3     4 2   
     7     3     6 1   
     8     4    11 1   
     9     4    15 1   
    10     5    10 2   
    11     5    11 1   
    12     6     7 1   
    13     6    16 2   
    14     7     8 2   
    15     7    18 1   
    16     8    17 1   
    17     8    27 1   
    18     9    17 2   
    19     9    18 1   
    20     9    19 1   
    21    11    12 1   
    22    12    13 1   
    23    12    28 1   
    24    12    29 1   
    25    13    14 1   
    26    13    30 1   
    27    13    31 1   
    28    14    32 1   
    29    14    33 1   
    30    14    34 1   
    31    15    16 1   
    32    15    35 1   
    33    19    20 ar  
    34    19    24 ar  
    35    20    21 ar  
    36    20    36 1   
    37    21    22 ar  
    38    21    37 1   
    39    22    23 ar  
    40    22    38 1   
    41    23    24 ar  
    42    24    39 1   
@<TRIPOS>SUBSTRUCTURE
     1 57X         1 TEMP              0 ****  ****    0 ROOT
