@<TRIPOS>MOLECULE
molecule
   43    46     1     0     0
SMALL
bcc


@<TRIPOS>ATOM
      1 C20          0.0000     0.0000     0.0000 ca         1 57Y      -0.025000
      2 C21          1.3580     0.0000     0.0000 ca         1 57Y      -0.221000
      3 C15         -7.0530    -0.0100    -2.3740 ca         1 57Y      -0.137000
      4 C18         -5.4330     1.6030    -3.1530 ca         1 57Y       0.405200
      5 C10         -4.3130    -0.7680     0.7740 cc         1 57Y       0.403200
      6 C19         -0.6950    -0.0000     1.2220 ca         1 57Y      -0.199000
      7 C14         -5.8210     0.6320    -2.2180 ca         1 57Y      -0.296800
      8 C4           1.4790    -0.0100     2.4070 ca         1 57Y      -0.100300
      9 C5           0.0690    -0.0050     2.4760 ca         1 57Y      -0.007000
     10 C22          2.0930     0.0000     1.1920 ca         1 57Y       0.141100
     11 C16         -7.8470     0.3430    -3.4580 ca         1 57Y       0.005800
     12 C8          -2.0470     0.0050     1.5840 cd         1 57Y       0.058700
     13 C9          -3.1920     0.0100     0.6680 cd         1 57Y      -0.169200
     14 CA          -7.3880     1.3230    -4.3490 ca         1 57Y       0.432800
     15 C12         -4.9390     0.2940    -1.0840 cd         1 57Y       0.592900
     16 C           -8.2220     1.7060    -5.5030 c          1 57Y       0.771100
     17 C1           3.4050    -1.4640     5.3810 c3         1 57Y      -0.092100
     18 C3           2.2990    -0.0150     3.6710 c3         1 57Y      -0.017100
     19 C2           2.5710    -1.4590     4.0970 c3         1 57Y      -0.077400
     20 N           -6.2090     1.9110    -4.1640 nb         1 57Y      -0.625000
     21 N11         -5.2050    -0.5910    -0.1630 nc         1 57Y      -0.705000
     22 N7          -2.1040     0.0030     2.9350 na         1 57Y       0.023800
     23 N6          -0.8090    -0.0030     3.4640 nc         1 57Y      -0.285400
     24 O           -9.3000     1.1740    -5.6780 o          1 57Y      -0.798800
     25 O23          3.4510    -0.0010     1.1340 oh         1 57Y      -0.513100
     26 O17         -9.0500    -0.2530    -3.6520 oh         1 57Y      -0.455100
     27 OXT         -7.7880     2.6480    -6.3640 o          1 57Y      -0.798800
     28 S13         -3.3680     1.0210    -0.7660 ss         1 57Y      -0.193300
     29 H1          -0.5450    -0.0000    -0.9360 ha         1 57Y       0.139000
     30 H2           1.8860     0.0080    -0.9460 ha         1 57Y       0.130000
     31 H5          -4.4500    -1.4810     1.5780 h4         1 57Y       0.033100
     32 H6           3.5720    -2.4860     5.6990 hc         1 57Y       0.028700
     33 H7           2.8750    -0.9260     6.1570 hc         1 57Y       0.028700
     34 H8           4.3580    -0.9840     5.1940 hc         1 57Y       0.028700
     35 H9           1.7560     0.4960     4.4570 hc         1 57Y       0.050700
     36 H10          3.2400     0.4920     3.4930 hc         1 57Y       0.050700
     37 H11          3.1150    -1.9710     3.3120 hc         1 57Y       0.046700
     38 H12          1.6310    -1.9670     4.2750 hc         1 57Y       0.046700
     39 H13         -2.9460     0.0060     3.4760 hn         1 57Y       0.332700
     40 H14          3.7400     0.6610     0.5290 ho         1 57Y       0.417000
     41 H15         -8.9440    -1.1900    -3.6330 ho         1 57Y       0.398000
     42 H3          -7.3790    -0.7640    -1.6680 ha         1 57Y       0.144000
     43 H4          -4.4800     2.1050    -3.0390 h4         1 57Y       0.006100
@<TRIPOS>BOND
     1    25    10 1
     2     2    10 ar
     3     2     1 ar
     4    10     8 ar
     5     1     6 ar
     6     8    18 1
     7     8     9 ar
     8    19    18 1
     9    19    17 1
    10     6     9 ar
    11     6    12 2
    12     5    21 1
    13     5    13 2
    14     9    23 2
    15    21    15 2
    16    13    12 1
    17    13    28 1
    18    12    22 1
    19    15     7 1
    20    15    28 1
    21     3     7 ar
    22     3    11 ar
    23    23    22 1
    24     7     4 ar
    25    26    11 1
    26    11    14 ar
    27     4    20 ar
    28    14    20 ar
    29    14    16 1
    30    16    24 1
    31    16    27 1
    32     1    29 1
    33     2    30 1
    34     3    42 1
    35     4    43 1
    36     5    31 1
    37    17    32 1
    38    17    33 1
    39    17    34 1
    40    18    35 1
    41    18    36 1
    42    19    37 1
    43    19    38 1
    44    22    39 1
    45    25    40 1
    46    26    41 1
@<TRIPOS>SUBSTRUCTURE
     1 57Y         1 TEMP              0 ****  ****    0 ROOT
