@<TRIPOS>MOLECULE
57Y
   43    46     1     0     0
SMALL
bcc


@<TRIPOS>ATOM
      1 C20        -0.1130    0.6500    0.0660 ca        1 57Y     -0.034000
      2 C21         1.2400    0.8630    0.0780 ca        1 57Y     -0.211000
      3 C15        -7.1950    0.3270   -2.0760 ca        1 57Y     -0.114000
      4 C18        -5.0980    0.5660   -3.2480 ca        1 57Y      0.357200
      5 C10        -4.5670   -0.3600    1.3020 cc        1 57Y      0.352200
      6 C19        -0.7350    0.1860    1.2390 ca        1 57Y     -0.162000
      7 C14        -5.7920    0.3350   -2.0380 ca        1 57Y     -0.280800
      8 C4          1.4620    0.1610    2.4450 ca        1 57Y     -0.085300
      9 C5          0.0520   -0.0640    2.4490 ca        1 57Y     -0.039000
     10 C22         2.0120    0.6180    1.2600 ca        1 57Y      0.121100
     11 C16        -7.8270    0.5620   -3.3060 ca        1 57Y      0.039800
     12 C8         -2.0750   -0.1350    1.6040 cd        1 57Y      0.026700
     13 C9         -3.2750   -0.0860    0.8390 cd        1 57Y     -0.196200
     14 CA         -7.0430    0.8250   -4.4740 ca        1 57Y      0.329800
     15 C12        -5.0540    0.1140   -0.8150 cd        1 57Y      0.523900
     16 C          -7.7700    1.1350   -5.8040 c         1 57Y      0.821100
     17 C1          3.4000   -1.7720    5.1090 c3        1 57Y     -0.090100
     18 C3          2.2730   -0.0770    3.6650 c3        1 57Y     -0.017100
     19 C2          2.5820   -1.5500    3.8630 c3        1 57Y     -0.076400
     20 N          -5.6980    0.8060   -4.4260 nb        1 57Y     -0.617000
     21 N11        -5.5720   -0.2480    0.3720 nc        1 57Y     -0.648000
     22 N7         -2.0020   -0.5350    2.9400 na        1 57Y      0.050800
     23 N6         -0.7770   -0.5030    3.4560 nc        1 57Y     -0.291400
     24 O          -7.3280    2.0460   -6.5380 o         1 57Y     -0.799300
     25 O23         3.3760    0.8430    1.2410 oh        1 57Y     -0.505100
     26 O17        -9.1930    0.5330   -3.2960 oh        1 57Y     -0.532100
     27 OXT        -8.8120    0.4490   -6.0220 o         1 57Y     -0.799300
     28 S13        -3.3370    0.3200   -0.7950 ss        1 57Y     -0.072300
     29 H1         -0.7180    0.8340   -0.8370 ha        1 57Y      0.142000
     30 H2          1.7580    1.2250   -0.8220 ha        1 57Y      0.131000
     31 H5         -4.8390   -0.6480    2.3240 h4        1 57Y      0.028100
     32 H6          4.3690   -1.2190    5.0500 hc        1 57Y      0.027700
     33 H7          2.8480   -1.4140    6.0120 hc        1 57Y      0.027700
     34 H8          3.6210   -2.8590    5.2390 hc        1 57Y      0.027700
     35 H9          1.7180    0.3090    4.5620 hc        1 57Y      0.052200
     36 H10         3.2370    0.4960    3.5920 hc        1 57Y      0.052200
     37 H11         3.1410   -1.9350    2.9700 hc        1 57Y      0.045200
     38 H12         1.6220   -2.1270    3.9320 hc        1 57Y      0.045200
     39 H13        -2.7710   -0.8270    3.4990 hn        1 57Y      0.321700
     40 H14         3.6020    1.2020    0.3710 ho        1 57Y      0.414000
     41 H15        -9.5150    0.5480   -4.2220 ho        1 57Y      0.481000
     42 H3         -7.7940    0.1400   -1.1750 ha        1 57Y      0.154000
     43 H4         -3.9930    0.5590   -3.2720 h4        1 57Y     -0.001900
@<TRIPOS>BOND
     1    1    2 ar  
     2    1    6 ar  
     3    1   29 1   
     4    2   10 ar  
     5    2   30 1   
     6    3    7 ar  
     7    3   11 ar  
     8    3   42 1   
     9    4    7 ar  
    10    4   20 ar  
    11    4   43 1   
    12    5   13 2   
    13    5   21 1   
    14    5   31 1   
    15    6    9 ar  
    16    6   12 2   
    17    7   15 1   
    18    8    9 ar  
    19    8   10 ar  
    20    8   18 1   
    21    9   23 2   
    22   10   25 1   
    23   11   14 ar  
    24   11   26 1   
    25   12   13 1   
    26   12   22 1   
    27   13   28 1   
    28   14   16 1   
    29   14   20 ar  
    30   15   21 2   
    31   15   28 1   
    32   16   24 1   
    33   16   27 1   
    34   17   19 1   
    35   17   32 1   
    36   17   33 1   
    37   17   34 1   
    38   18   19 1   
    39   18   35 1   
    40   18   36 1   
    41   19   37 1   
    42   19   38 1   
    43   22   23 1   
    44   22   39 1   
    45   25   40 1   
    46   26   41 1   
@<TRIPOS>SUBSTRUCTURE
     1 57Y         1 TEMP              0 ****  ****    0 ROOT
