@<TRIPOS>MOLECULE
57Z
   51    53     1     0     0
SMALL
bcc


@<TRIPOS>ATOM
      1 OAC          0.0000     0.0000     0.0000 o          1 57Z      -0.731500
      2 CAY          1.2190     0.0000     0.0000 c          1 57Z       0.609700
      3 NAR          1.8740     0.0000     1.1740 ns         1 57Z       0.051900
      4 CBA          3.2520    -0.0010     1.2170 ca         1 57Z      -0.080400
      5 CAV          3.9310    -0.0010     2.4310 ca         1 57Z      -0.140300
      6 CAB          3.1620    -0.0030     3.7280 c3         1 57Z       0.065200
      7 CAK          5.3090    -0.0010     2.4440 ca         1 57Z      -0.048000
      8 CAT          6.0290     0.0020     1.2580 ca         1 57Z      -0.120300
      9 CAA          7.5350     0.0030     1.2990 c3         1 57Z       0.067200
     10 CAL          5.3850     0.0030     0.0540 ca         1 57Z      -0.036000
     11 CAZ          3.9860     0.0010     0.0160 ca         1 57Z      -0.123800
     12 CAM          3.2630     0.0030    -1.2570 cc         1 57Z       0.039800
     13 CAX          1.9070    -0.0030    -1.2320 cd         1 57Z      -0.269400
     14 CAP          1.1320    -0.0030    -2.5250 c3         1 57Z       0.094200
     15 NBB          0.7840    -1.3790    -2.8860 n          1 57Z       0.000200
     16 CAO         -0.4750    -1.9640    -2.4180 c3         1 57Z      -0.023000
     17 CAN         -1.5780    -1.6870    -3.4400 c3         1 57Z       0.204400
     18 OAD         -1.2780    -2.3670    -4.6600 oh         1 57Z      -0.607800
     19 CAS          1.6210    -2.1070    -3.6500 cs         1 57Z       0.286400
     20 SAF          3.0920    -1.4240    -4.1990 s          1 57Z      -0.764400
     21 NAQ          1.3010    -3.3740    -3.9840 ns         1 57Z       0.104900
     22 CAW          2.1130    -4.0920    -4.8720 ca         1 57Z      -0.144400
     23 CAI          2.4020    -5.4260    -4.6230 ca         1 57Z      -0.063000
     24 CAG          3.2020    -6.1330    -5.5000 ca         1 57Z      -0.138000
     25 CAU          3.7170    -5.5100    -6.6270 ca         1 57Z       0.131100
     26 OAE          4.5080    -6.2050    -7.4860 oh         1 57Z      -0.504100
     27 CAH          3.4270    -4.1770    -6.8760 ca         1 57Z      -0.138000
     28 CAJ          2.6240    -3.4700    -6.0030 ca         1 57Z      -0.063000
     29 H1           1.3540     0.0010     2.0290 hn         1 57Z       0.179500
     30 H2           3.8560    -0.0020     4.5600 hc         1 57Z       0.010367
     31 H3           2.5400    -0.8890     3.7780 hc         1 57Z       0.010367
     32 H4           2.5360     0.8800     3.7780 hc         1 57Z       0.010367
     33 H5           5.8360    -0.0020     3.3910 ha         1 57Z       0.110000
     34 H6           7.9040     0.9820     1.0170 hc         1 57Z       0.008367
     35 H7           7.8690    -0.2330     2.3020 hc         1 57Z       0.008367
     36 H8           7.9160    -0.7390     0.6070 hc         1 57Z       0.008367
     37 H9           5.9540     0.0040    -0.8680 ha         1 57Z       0.119000
     38 H10          3.8000    -0.0000    -2.1990 ha         1 57Z       0.164000
     39 H11          0.2260     0.5780    -2.4030 h1         1 57Z       0.064200
     40 H12          1.7380     0.4340    -3.3090 h1         1 57Z       0.064200
     41 H13         -0.7460    -1.5220    -1.4660 h1         1 57Z       0.056700
     42 H14         -0.3540    -3.0330    -2.2970 h1         1 57Z       0.056700
     43 H15         -1.6400    -0.6220    -3.6260 h1         1 57Z       0.002200
     44 H16         -2.5260    -2.0410    -3.0530 h1         1 57Z       0.002200
     45 H17         -2.0430    -2.3780    -5.2110 ho         1 57Z       0.404000
     46 H18          0.5020    -3.8130    -3.5720 hn         1 57Z       0.169500
     47 H19          2.0000    -5.9130    -3.7430 ha         1 57Z       0.128500
     48 H20          3.4290    -7.1750    -5.3060 ha         1 57Z       0.115000
     49 H21          5.4090    -6.1220    -7.2210 ho         1 57Z       0.404000
     50 H22          3.8270    -3.6910    -7.7580 ha         1 57Z       0.115000
     51 H23          2.3970    -2.4280    -6.1980 ha         1 57Z       0.128500
@<TRIPOS>BOND
     1     1     2 2   
     2     2     3 1   
     3     2    13 1   
     4     3     4 1   
     5     3    29 1   
     6     4     5 ar  
     7     4    11 ar  
     8     5     6 1   
     9     5     7 ar  
    10     6    30 1   
    11     6    31 1   
    12     6    32 1   
    13     7     8 ar  
    14     7    33 1   
    15     8     9 1   
    16     8    10 ar  
    17     9    34 1   
    18     9    35 1   
    19     9    36 1   
    20    10    11 ar  
    21    10    37 1   
    22    11    12 1   
    23    12    13 2   
    24    12    38 1   
    25    13    14 1   
    26    14    15 1   
    27    14    39 1   
    28    14    40 1   
    29    15    16 1   
    30    15    19 1   
    31    16    17 1   
    32    16    41 1   
    33    16    42 1   
    34    17    18 1   
    35    17    43 1   
    36    17    44 1   
    37    18    45 1   
    38    19    20 2   
    39    19    21 1   
    40    21    22 1   
    41    21    46 1   
    42    22    23 ar  
    43    22    28 ar  
    44    23    24 ar  
    45    23    47 1   
    46    24    25 ar  
    47    24    48 1   
    48    25    26 1   
    49    25    27 ar  
    50    26    49 1   
    51    27    28 ar  
    52    27    50 1   
    53    28    51 1   
@<TRIPOS>SUBSTRUCTURE
     1 57Z         1 TEMP              0 ****  ****    0 ROOT
