@<TRIPOS>MOLECULE
molecule
   51    53     1     0     0
SMALL
bcc


@<TRIPOS>ATOM
      1 OAC          0.0000     0.0000     0.0000 o          1 57Z      -0.683500
      2 CAY          1.2190     0.0000     0.0000 c          1 57Z       0.708700
      3 NAR          1.8740     0.0000     1.1740 ns         1 57Z      -0.422100
      4 CBA          3.2520    -0.0010     1.2170 ca         1 57Z       0.083600
      5 CAV          3.9310    -0.0010     2.4310 ca         1 57Z      -0.136300
      6 CAB          3.1620    -0.0030     3.7280 c3         1 57Z      -0.048800
      7 CAK          5.3090    -0.0010     2.4440 ca         1 57Z      -0.074000
      8 CAT          6.0290     0.0020     1.2580 ca         1 57Z      -0.115300
      9 CAA          7.5350     0.0030     1.2990 c3         1 57Z      -0.044800
     10 CAL          5.3850     0.0030     0.0540 ca         1 57Z      -0.065000
     11 CAZ          3.9860     0.0010     0.0160 ca         1 57Z      -0.132800
     12 CAM          3.2630     0.0030    -1.2570 cc         1 57Z       0.018800
     13 CAX          1.9070    -0.0030    -1.2320 cd         1 57Z      -0.257400
     14 CAP          1.1320    -0.0030    -2.5250 c3         1 57Z       0.172200
     15 NBB          0.7840    -1.3790    -2.8860 n          1 57Z      -0.408800
     16 CAO         -0.4750    -1.9640    -2.4180 c3         1 57Z       0.077000
     17 CAN         -1.5780    -1.6870    -3.4400 c3         1 57Z       0.114400
     18 OAD         -1.2780    -2.3670    -4.6600 oh         1 57Z      -0.616800
     19 CAS          1.6210    -2.1070    -3.6500 cs         1 57Z       0.629400
     20 SAF          3.0920    -1.4240    -4.1990 s          1 57Z      -0.746400
     21 NAQ          1.3010    -3.3740    -3.9840 ns         1 57Z      -0.402100
     22 CAW          2.1130    -4.0920    -4.8720 ca         1 57Z       0.035600
     23 CAI          2.4020    -5.4260    -4.6230 ca         1 57Z      -0.101500
     24 CAG          3.2020    -6.1330    -5.5000 ca         1 57Z      -0.151000
     25 CAU          3.7170    -5.5100    -6.6270 ca         1 57Z       0.102100
     26 OAE          4.5080    -6.2050    -7.4860 oh         1 57Z      -0.525100
     27 CAH          3.4270    -4.1770    -6.8760 ca         1 57Z      -0.151000
     28 CAJ          2.6240    -3.4700    -6.0030 ca         1 57Z      -0.101500
     29 H1           1.3540     0.0010     2.0290 hn         1 57Z       0.339500
     30 H2           3.8560    -0.0020     4.5600 hc         1 57Z       0.045700
     31 H3           2.5400    -0.8890     3.7780 hc         1 57Z       0.045700
     32 H4           2.5360     0.8800     3.7780 hc         1 57Z       0.045700
     33 H5           5.8360    -0.0020     3.3910 ha         1 57Z       0.136000
     34 H6           7.9040     0.9820     1.0170 hc         1 57Z       0.044367
     35 H7           7.8690    -0.2330     2.3020 hc         1 57Z       0.044367
     36 H8           7.9160    -0.7390     0.6070 hc         1 57Z       0.044367
     37 H9           5.9540     0.0040    -0.8680 ha         1 57Z       0.147000
     38 H10          3.8000    -0.0000    -2.1990 ha         1 57Z       0.189000
     39 H11          0.2260     0.5780    -2.4030 h1         1 57Z       0.089700
     40 H12          1.7380     0.4340    -3.3090 h1         1 57Z       0.089700
     41 H13         -0.7460    -1.5220    -1.4660 h1         1 57Z       0.078700
     42 H14         -0.3540    -3.0330    -2.2970 h1         1 57Z       0.078700
     43 H15         -1.6400    -0.6220    -3.6260 h1         1 57Z       0.037200
     44 H16         -2.5260    -2.0410    -3.0530 h1         1 57Z       0.037200
     45 H17         -2.0430    -2.3780    -5.2110 ho         1 57Z       0.411000
     46 H18          0.5020    -3.8130    -3.5720 hn         1 57Z       0.332500
     47 H19          2.0000    -5.9130    -3.7430 ha         1 57Z       0.152000
     48 H20          3.4290    -7.1750    -5.3060 ha         1 57Z       0.142500
     49 H21          5.4090    -6.1220    -7.2210 ho         1 57Z       0.419000
     50 H22          3.8270    -3.6910    -7.7580 ha         1 57Z       0.142500
     51 H23          2.3970    -2.4280    -6.1980 ha         1 57Z       0.152000
@<TRIPOS>BOND
     1    26    25 1   
     2    25    27 ar  
     3    25    24 ar  
     4    27    28 ar  
     5    24    23 ar  
     6    28    22 ar  
     7    23    22 ar  
     8    22    21 1   
     9    21    19 1   
    10    20    19 2   
    11     9     8 1   
    12    19    15 1   
    13     8    10 ar  
    14     8     7 ar  
    15    10    11 ar  
    16     7     5 ar  
    17    11    12 1   
    18    11     4 ar  
    19    12    13 2   
    20    15    14 1   
    21    15    16 1   
    22     5     4 ar  
    23     5     6 1   
    24    14    13 1   
    25    13     2 1   
    26     4     3 1   
    27     2     3 1   
    28     2     1 2   
    29    16    17 1   
    30    17    18 1   
    31     3    29 1   
    32     6    30 1   
    33     6    31 1   
    34     6    32 1   
    35     7    33 1   
    36     9    34 1   
    37     9    35 1   
    38     9    36 1   
    39    10    37 1   
    40    12    38 1   
    41    14    39 1   
    42    14    40 1   
    43    16    41 1   
    44    16    42 1   
    45    17    43 1   
    46    17    44 1   
    47    18    45 1   
    48    21    46 1   
    49    23    47 1   
    50    24    48 1   
    51    26    49 1   
    52    27    50 1   
    53    28    51 1   
@<TRIPOS>SUBSTRUCTURE
     1 57Z         1 TEMP              0 ****  ****    0 ROOT
