@<TRIPOS>MOLECULE
580
   38    41     1     0     0
SMALL
bcc


@<TRIPOS>ATOM
      1 C1         -0.1250   -0.0580   -0.0960 cc        1 580     -0.144300
      2 C2          1.3360   -0.0240   -0.0780 cc        1 580      0.250300
      3 N3          1.8130   -0.1160    1.2080 nd        1 580     -0.469800
      4 N4          0.7410   -0.2050    1.9790 na        1 580      0.085400
      5 C5         -0.4760   -0.1810    1.2560 cd        1 580     -0.115600
      6 C6          0.5270   -0.3250    3.4140 c3        1 580      0.056300
      7 C7         -1.0150   -0.3770    3.5800 c3        1 580     -0.098400
      8 C8         -1.6410   -0.2820    2.1720 c3        1 580     -0.010100
      9 C15         2.2310    0.0650   -1.2380 ca        1 580      0.386300
     10 C16        -1.0120    0.0340   -1.2270 ca        1 580      0.002000
     11 C17        -2.1540   -0.7790   -1.2960 ca        1 580     -0.091500
     12 C18        -3.0290   -0.6910   -2.3720 ca        1 580     -0.166500
     13 C19        -2.7670    0.2280   -3.4050 ca        1 580      0.118900
     14 C20        -1.6260    1.0480   -3.3470 ca        1 580     -0.166500
     15 C21        -0.7610    0.9450   -2.2640 ca        1 580     -0.091500
     16 C26         3.3180    0.9670   -1.1890 ca        1 580     -0.228300
     17 C27         4.1690    1.0430   -2.2910 ca        1 580     -0.097000
     18 C28         3.9220    0.2320   -3.3960 ca        1 580     -0.248300
     19 C29         2.8170   -0.6480   -3.3660 ca        1 580      0.412600
     20 N30         1.9810   -0.7350   -2.3040 nb        1 580     -0.650000
     21 F34        -3.6160    0.3220   -4.4570 f         1 580     -0.144900
     22 C35         2.5640   -1.5290   -4.5480 c3        1 580     -0.148400
     23 H61         1.0150   -1.2600    3.7990 h1        1 580      0.068700
     24 H62         0.9690    0.5610    3.9440 h1        1 580      0.068700
     25 H71        -1.3090   -1.3320    4.0760 hc        1 580      0.060700
     26 H72        -1.3550    0.4730    4.2180 hc        1 580      0.060700
     27 H81        -2.2990    0.6190    2.0830 hc        1 580      0.069700
     28 H82        -2.2530   -1.1890    1.9400 hc        1 580      0.069700
     29 H17        -2.3540   -1.5010   -0.4890 ha        1 580      0.138500
     30 H18        -3.9200   -1.3320   -2.4270 ha        1 580      0.145500
     31 H20        -1.4270    1.7630   -4.1590 ha        1 580      0.145500
     32 H21         0.1360    1.5830   -2.2200 ha        1 580      0.138500
     33 H26         3.4860    1.5870   -0.2980 ha        1 580      0.153000
     34 H27         5.0250    1.7340   -2.2850 ha        1 580      0.137000
     35 H28         4.5740    0.2690   -4.2790 ha        1 580      0.141000
     36 H351        1.4990   -1.4570   -4.8800 hc        1 580      0.053367
     37 H352        3.2250   -1.2320   -5.3980 hc        1 580      0.053367
     38 H353        2.7760   -2.5950   -4.2820 hc        1 580      0.053367
@<TRIPOS>BOND
     1    1    2 1   
     2    1    5 2   
     3    1   10 1   
     4    2    3 2   
     5    2    9 1   
     6    3    4 1   
     7    4    5 1   
     8    4    6 1   
     9    5    8 1   
    10    6    7 1   
    11    6   23 1   
    12    6   24 1   
    13    7    8 1   
    14    7   25 1   
    15    7   26 1   
    16    8   27 1   
    17    8   28 1   
    18    9   16 ar  
    19    9   20 ar  
    20   10   11 ar  
    21   10   15 ar  
    22   11   12 ar  
    23   11   29 1   
    24   12   13 ar  
    25   12   30 1   
    26   13   14 ar  
    27   13   21 1   
    28   14   15 ar  
    29   14   31 1   
    30   15   32 1   
    31   16   17 ar  
    32   16   33 1   
    33   17   18 ar  
    34   17   34 1   
    35   18   19 ar  
    36   18   35 1   
    37   19   20 ar  
    38   19   22 1   
    39   22   36 1   
    40   22   37 1   
    41   22   38 1   
@<TRIPOS>SUBSTRUCTURE
     1 580         1 TEMP              0 ****  ****    0 ROOT
