@<TRIPOS>MOLECULE
molecule
   38    41     1     0     0
SMALL
bcc


@<TRIPOS>ATOM
      1 C1           0.0000     0.0000     0.0000 cc         1 580      -0.217300
      2 C2           1.4150     0.0000     0.0000 cc         1 580       0.307300
      3 N3           1.8180     0.0000     1.2510 nd         1 580      -0.477800
      4 N4           0.6860    -0.0060     2.0840 na         1 580       0.056400
      5 C5          -0.4110    -0.0120     1.3020 cd         1 580      -0.086600
      6 C6           0.3160    -0.0040     3.5080 c3         1 580       0.073300
      7 C7          -1.1600    -0.4500     3.5540 c3         1 580      -0.104400
      8 C8          -1.6610    -0.0250     2.1560 c3         1 580      -0.020100
      9 C15          2.2890     0.0070    -1.1970 ca         1 580       0.408300
     10 C16         -0.8780     0.0120    -1.1970 ca         1 580       0.008000
     11 C17         -1.7740    -1.0310    -1.4160 ca         1 580      -0.088000
     12 C18         -2.5910    -1.0140    -2.5270 ca         1 580      -0.169000
     13 C19         -2.5160     0.0350    -3.4280 ca         1 580       0.123900
     14 C20         -1.6240     1.0720    -3.2160 ca         1 580      -0.169000
     15 C21         -0.8060     1.0660    -2.1050 ca         1 580      -0.088000
     16 C26          3.5400     0.6170    -1.1370 ca         1 580      -0.230300
     17 C27          4.3440     0.6150    -2.2630 ca         1 580      -0.096000
     18 C28          3.8690     0.0020    -3.4150 ca         1 580      -0.249300
     19 C29          2.6180    -0.5830    -3.4040 ca         1 580       0.430600
     20 N30          1.8700    -0.5620    -2.3200 nb         1 580      -0.675000
     21 F34         -3.3150     0.0450    -4.5180 f          1 580      -0.147900
     22 C35          2.0980    -1.2490    -4.6520 c3         1 580      -0.139400
     23 H61          0.9350    -0.7060     4.0550 h1         1 580       0.064200
     24 H62          0.4170     0.9930     3.9190 h1         1 580       0.064200
     25 H71         -1.2090    -1.5290     3.6430 hc         1 580       0.069200
     26 H72         -1.6850     0.1160     4.3140 hc         1 580       0.069200
     27 H81         -2.3400    -0.7800     1.7780 hc         1 580       0.072200
     28 H82         -2.0610     0.9800     2.2130 hc         1 580       0.072200
     29 H17         -1.8330    -1.8520    -0.7120 ha         1 580       0.136500
     30 H18         -3.2890    -1.8240    -2.6970 ha         1 580       0.140000
     31 H20         -1.5680     1.8910    -3.9230 ha         1 580       0.140000
     32 H21         -0.1080     1.8780    -1.9400 ha         1 580       0.136500
     33 H26          3.8790     1.0860    -0.2210 ha         1 580       0.151000
     34 H27          5.3220     1.0810    -2.2460 ha         1 580       0.139000
     35 H28          4.4750    -0.0180    -4.3130 ha         1 580       0.138000
     36 H351         1.4280    -2.0550    -4.3790 hc         1 580       0.052700
     37 H352         2.9290    -1.6480    -5.2210 hc         1 580       0.052700
     38 H353         1.5640    -0.5230    -5.2540 hc         1 580       0.052700
@<TRIPOS>BOND
     1     1     2 1   
     2     1     5 2   
     3     1    10 1   
     4     2     3 2   
     5     2     9 1   
     6     3     4 1   
     7     4     5 1   
     8     4     6 1   
     9     5     8 1   
    10     6     7 1   
    11     6    23 1   
    12     6    24 1   
    13     7     8 1   
    14     7    25 1   
    15     7    26 1   
    16     8    27 1   
    17     8    28 1   
    18     9    16 ar  
    19     9    20 ar  
    20    10    11 ar  
    21    10    15 ar  
    22    11    12 ar  
    23    11    29 1   
    24    12    13 ar  
    25    12    30 1   
    26    13    14 ar  
    27    13    21 1   
    28    14    15 ar  
    29    14    31 1   
    30    15    32 1   
    31    16    17 ar  
    32    16    33 1   
    33    17    18 ar  
    34    17    34 1   
    35    18    19 ar  
    36    18    35 1   
    37    19    20 ar  
    38    19    22 1   
    39    22    36 1   
    40    22    37 1   
    41    22    38 1   
@<TRIPOS>SUBSTRUCTURE
     1 580         1 TEMP              0 ****  ****    0 ROOT
