@<TRIPOS>MOLECULE
581
   31    32     1     0     0
SMALL
bcc


@<TRIPOS>ATOM
      1 O5           0.0000     0.0000     0.0000 o          1 581      -0.651100
      2 C12          1.2130     0.0000     0.0000 c          1 581       0.557100
      3 C13          1.9660     0.0000     1.3050 c3         1 581      -0.070100
      4 N3           1.8870    -0.0050    -1.1670 ns         1 581      -0.023100
      5 C3           1.1920    -0.1080    -2.3770 ca         1 581      -0.105400
      6 C2          -0.0520     0.4980    -2.5170 ca         1 581      -0.111000
      7 C1          -0.7440     0.3980    -3.7100 ca         1 581      -0.093000
      8 C4           1.7440    -0.8090    -3.4370 ca         1 581      -0.078000
      9 C5           1.0460    -0.9090    -4.6410 ca         1 581      -0.096900
     10 C6          -0.2050    -0.3020    -4.7700 ca         1 581      -0.131000
     11 C7           1.6290    -1.6540    -5.7770 cc         1 581       0.238500
     12 N2           0.9240    -1.7350    -6.9420 ns         1 581       0.016600
     13 C10          1.4350    -2.4110    -7.9950 c          1 581       0.545700
     14 O1           0.8210    -2.4940    -9.0450 o          1 581      -0.732500
     15 C9           2.7520    -3.0420    -7.8380 cc         1 581      -0.024100
     16 O2           3.3210    -3.7330    -8.8560 oh         1 581      -0.409100
     17 C8           3.3950    -2.9060    -6.6160 cd         1 581       0.053400
     18 N1           2.8070    -2.2100    -5.6300 nd         1 581      -0.421300
     19 C11          4.7230    -3.5220    -6.4020 c          1 581       0.973800
     20 O3           5.3450    -3.3870    -5.2140 o          1 581      -0.859300
     21 O4           5.2540    -4.1460    -7.2970 o          1 581      -0.859300
     22 H1           1.2820     0.2120     2.1170 hc         1 581       0.021367
     23 H2           2.7380     0.7590     1.2760 hc         1 581       0.021367
     24 H3           2.4210    -0.9710     1.4600 hc         1 581       0.021367
     25 H4           2.8840     0.0820    -1.1690 hn         1 581       0.172500
     26 H5          -0.4810     1.0490    -1.6890 ha         1 581       0.138000
     27 H6          -1.7130     0.8700    -3.8120 ha         1 581       0.097000
     28 H7           2.7150    -1.2780    -3.3310 ha         1 581       0.155000
     29 H8          -0.7500    -0.3770    -5.7030 ha         1 581       0.100000
     30 H9           2.7640    -4.4550    -9.0950 ho         1 581       0.384000
     31 H12          0.0290    -1.2940    -7.0170 hn         1 581       0.170500
@<TRIPOS>BOND
     1     1     2 2   
     2     2     3 1   
     3     2     4 1   
     4     3    22 1   
     5     3    23 1   
     6     3    24 1   
     7     4     5 1   
     8     4    25 1   
     9     5     6 ar  
    10     5     8 ar  
    11     6     7 ar  
    12     6    26 1   
    13     7    10 ar  
    14     7    27 1   
    15     8     9 ar  
    16     8    28 1   
    17     9    10 ar  
    18     9    11 1   
    19    10    29 1   
    20    11    12 1   
    21    11    18 2   
    22    12    13 1   
    23    12    31 1   
    24    13    14 2   
    25    13    15 1   
    26    15    16 1   
    27    15    17 2   
    28    16    30 1   
    29    17    18 1   
    30    17    19 1   
    31    19    20 1   
    32    19    21 1   
@<TRIPOS>SUBSTRUCTURE
     1 581         1 TEMP              0 ****  ****    0 ROOT
