@<TRIPOS>MOLECULE
molecule
   31    32     1     0     0
SMALL
bcc


@<TRIPOS>ATOM
      1 O5           0.0000     0.0000     0.0000 o          1 581      -0.608100
      2 C12          1.2130     0.0000     0.0000 c          1 581       0.658100
      3 C13          1.9660     0.0000     1.3050 c3         1 581      -0.171100
      4 N3           1.8870    -0.0050    -1.1670 ns         1 581      -0.472100
      5 C3           1.1920    -0.1080    -2.3770 ca         1 581       0.038600
      6 C2          -0.0520     0.4980    -2.5170 ca         1 581      -0.126000
      7 C1          -0.7440     0.3980    -3.7100 ca         1 581      -0.126000
      8 C4           1.7440    -0.8090    -3.4370 ca         1 581      -0.100000
      9 C5           1.0460    -0.9090    -4.6410 ca         1 581      -0.101900
     10 C6          -0.2050    -0.3020    -4.7700 ca         1 581      -0.144000
     11 C7           1.6290    -1.6540    -5.7770 cc         1 581       0.469500
     12 N2           0.9240    -1.7350    -6.9420 ns         1 581      -0.450400
     13 C10          1.4350    -2.4110    -7.9950 c          1 581       0.645700
     14 O1           0.8210    -2.4940    -9.0450 o          1 581      -0.685500
     15 C9           2.7520    -3.0420    -7.8380 cc         1 581      -0.056100
     16 O2           3.3210    -3.7330    -8.8560 oh         1 581      -0.436100
     17 C8           3.3950    -2.9060    -6.6160 cd         1 581       0.128400
     18 N1           2.8070    -2.2100    -5.6300 nd         1 581      -0.566300
     19 C11          4.7230    -3.5220    -6.4020 c          1 581       0.889800
     20 O3           5.3450    -3.3870    -5.2140 o          1 581      -0.804300
     21 O4           5.2540    -4.1460    -7.2970 o          1 581      -0.804300
     22 H1           1.2820     0.2120     2.1170 hc         1 581       0.060033
     23 H2           2.7380     0.7590     1.2760 hc         1 581       0.060033
     24 H3           2.4210    -0.9710     1.4600 hc         1 581       0.060033
     25 H4           2.8840     0.0820    -1.1690 hn         1 581       0.331500
     26 H5          -0.4810     1.0490    -1.6890 ha         1 581       0.157000
     27 H6          -1.7130     0.8700    -3.8120 ha         1 581       0.126000
     28 H7           2.7150    -1.2780    -3.3310 ha         1 581       0.185000
     29 H8          -0.7500    -0.3770    -5.7030 ha         1 581       0.122000
     30 H9           2.7640    -4.4550    -9.0950 ho         1 581       0.402000
     31 H12          0.0290    -1.2940    -7.0170 hn         1 581       0.317500
@<TRIPOS>BOND
     1     1     2 2   
     2     2     3 1   
     3     2     4 1   
     4     4     5 1   
     5     6     5 ar  
     6     6     7 ar  
     7     5     8 ar  
     8     7    10 ar  
     9     8     9 ar  
    10    10     9 ar  
    11     9    11 1   
    12    11    12 1   
    13    11    18 2   
    14    12    13 1   
    15    18    17 1   
    16    13    14 2   
    17    13    15 1   
    18    17    15 2   
    19    17    19 1   
    20    15    16 1   
    21    21    19 1   
    22    19    20 1   
    23     3    22 1   
    24     3    23 1   
    25     3    24 1   
    26     4    25 1   
    27     6    26 1   
    28     7    27 1   
    29     8    28 1   
    30    10    29 1   
    31    16    30 1   
    32    12    31 1   
@<TRIPOS>SUBSTRUCTURE
     1 581         1 TEMP              0 ****  ****    0 ROOT
