@<TRIPOS>MOLECULE
582
   30    32     1     0     0
SMALL
bcc


@<TRIPOS>ATOM
      1 C1           0.0000     0.0000     0.0000 ca         1 582      -0.049000
      2 C2           1.3780     0.0000     0.0000 ca         1 582      -0.166000
      3 C3           2.0770     0.0000     1.2030 ca         1 582      -0.032400
      4 C4           1.3620     0.0000     2.4130 ca         1 582      -0.067000
      5 C5          -0.0340     0.0010     2.3980 ca         1 582      -0.059000
      6 C6          -0.7060     0.0010     1.1950 ca         1 582      -0.133000
      7 N11          3.4600    -0.0020     1.2010 n          1 582       0.056000
      8 C12          4.1730    -0.0020     2.3430 c          1 582       0.672100
      9 C13          3.4990    -0.0000     3.6420 cc         1 582      -0.384900
     10 C14          2.1000     0.0000     3.6830 cd         1 582      -0.164300
     11 O2           5.3890    -0.0030     2.2940 o          1 582      -0.685500
     12 C18          4.1700    -0.0030    -0.0800 c3         1 582       0.009000
     13 N1           1.7400     0.0010     4.9880 na         1 582       0.484400
     14 C23          3.9480    -0.0010     4.9770 cc         1 582       0.452600
     15 C9           5.3880    -0.0030     5.4220 c3         1 582      -0.010400
     16 N2           2.9070     0.0010     5.7630 nd         1 582      -0.673800
     17 C7           4.4190     1.4390    -0.5270 c3         1 582      -0.015100
     18 H1          -0.5370    -0.0000    -0.9410 ha         1 582       0.104000
     19 H2           1.9180    -0.0010    -0.9390 ha         1 582       0.126000
     20 H5          -0.5870     0.0020     3.3290 ha         1 582       0.098000
     21 H6          -1.7890     0.0010     1.1810 ha         1 582       0.108000
     22 H181         5.1180    -0.5150     0.0330 h1         1 582       0.043200
     23 H182         3.5700    -0.5140    -0.8240 h1         1 582       0.043200
     24 HN1          0.8020     0.0020     5.3390 hn         1 582       0.146700
     25 H91          5.8840    -0.8860     5.0380 hc         1 582       0.019033
     26 H92          5.4320    -0.0070     6.5050 hc         1 582       0.019033
     27 H93          5.8840     0.8830     5.0440 hc         1 582       0.019033
     28 H71          5.4520     1.7020    -0.3390 hc         1 582       0.012700
     29 H72          3.7690     2.1060     0.0270 hc         1 582       0.012700
     30 H73          4.2100     1.5290    -1.5870 hc         1 582       0.012700
@<TRIPOS>BOND
     1     1     2 ar  
     2     1     6 ar  
     3     1    18 1   
     4     2     3 ar  
     5     2    19 1   
     6     3     4 ar  
     7     3     7 1   
     8     4     5 ar  
     9     4    10 1   
    10     5     6 ar  
    11     5    20 1   
    12     6    21 1   
    13     7     8 1   
    14     7    12 1   
    15     8     9 1   
    16     8    11 2   
    17     9    10 2   
    18     9    14 1   
    19    10    13 1   
    20    12    17 1   
    21    12    22 1   
    22    12    23 1   
    23    13    16 1   
    24    13    24 1   
    25    14    15 1   
    26    14    16 2   
    27    15    25 1   
    28    15    26 1   
    29    15    27 1   
    30    17    28 1   
    31    17    29 1   
    32    17    30 1   
@<TRIPOS>SUBSTRUCTURE
     1 582         1 TEMP              0 ****  ****    0 ROOT
