@<TRIPOS>MOLECULE
molecule
   31    33     1     0     0
SMALL
bcc


@<TRIPOS>ATOM
      1 C1           0.0000     0.0000     0.0000 cc         1 583      -0.252300
      2 C2           1.4170     0.0000     0.0000 cc         1 583       0.411800
      3 C3          -0.8780    -0.0050    -1.1960 ca         1 583      -0.012000
      4 C11         -1.4900     0.9140    -3.3290 ca         1 583      -0.153000
      5 C12          2.7160    -0.6910    -3.4590 ca         1 583      -0.159000
      6 C13          4.3110     0.6890    -2.2980 ca         1 583      -0.159000
      7 C14         -2.5170    -0.0150    -3.4290 ca         1 583       0.100100
      8 C15          3.9210    -0.0010    -3.4380 ca         1 583       0.111100
      9 C4          -0.4100     0.0000     1.3000 cd         1 583      -0.101300
     10 C5           2.2900    -0.0000    -1.1990 ca         1 583      -0.130500
     11 N1           1.8190     0.0000     1.2510 nd         1 583      -0.504800
     12 C6          -1.9160    -0.9290    -1.2970 ca         1 583      -0.109000
     13 C7          -0.6700     0.9180    -2.2200 ca         1 583      -0.109000
     14 N2           0.6910     0.0010     2.0800 na         1 583      -0.040600
     15 C8           1.9020    -0.6920    -2.3450 ca         1 583      -0.091000
     16 C9           3.5010     0.6910    -1.1820 ca         1 583      -0.091000
     17 C10         -2.7310    -0.9320    -2.4090 ca         1 583      -0.153000
     18 H1          -4.0600     0.5540    -4.3710 ho         1 583       0.418000
     19 H2           5.3170    -0.7300    -4.4910 ho         1 583       0.420000
     20 H3          -1.3290     1.6300    -4.1250 ha         1 583       0.141500
     21 H4           2.4160    -1.2280    -4.3500 ha         1 583       0.143000
     22 H5           5.2510     1.2260    -2.2860 ha         1 583       0.143000
     23 H6          -1.4370     0.0000     1.6450 h4         1 583       0.174000
     24 H8          -2.0840    -1.6450    -0.5010 ha         1 583       0.139000
     25 H9           0.1320     1.6430    -2.1420 ha         1 583       0.139000
     26 H10          0.9620    -1.2300    -2.3610 ha         1 583       0.147500
     27 H11          3.8050     1.2300    -0.2920 ha         1 583       0.147500
     28 H12         -3.5380    -1.6500    -2.4880 ha         1 583       0.141500
     29 H7           0.7000     0.0010     3.0810 hn         1 583       0.332700
     30 O1          -3.3250    -0.0160    -4.5230 oh         1 583      -0.523100
     31 O2           4.7210    -0.0010    -4.5360 oh         1 583      -0.523100
@<TRIPOS>BOND
     1    30     7 1   
     2     4     7 ar  
     3     4    13 ar  
     4     7    17 ar  
     5    13     3 ar  
     6    17    12 ar  
     7     3    12 ar  
     8     3     1 1   
     9    31     8 1   
    10     5     8 ar  
    11     5    15 ar  
    12     8     6 ar  
    13    15    10 ar  
    14     6    16 ar  
    15     1     2 1   
    16     1     9 2   
    17    10    16 ar  
    18    10     2 1   
    19     2    11 2   
    20     9    14 1   
    21    11    14 1   
    22    30    18 1   
    23    31    19 1   
    24     4    20 1   
    25     5    21 1   
    26     6    22 1   
    27     9    23 1   
    28    12    24 1   
    29    13    25 1   
    30    15    26 1   
    31    16    27 1   
    32    17    28 1   
    33    14    29 1   
@<TRIPOS>SUBSTRUCTURE
     1 583         1 TEMP              0 ****  ****    0 ROOT
