@<TRIPOS>MOLECULE
583
   31    33     1     0     0
SMALL
bcc


@<TRIPOS>ATOM
      1 C1         -0.0360   -0.1000   -0.0740 cc        1 583     -0.188300
      2 C2          1.4210   -0.0280   -0.0450 cc        1 583      0.375800
      3 C3         -0.9390   -0.0780   -1.1950 ca        1 583     -0.037000
      4 C11        -1.5710    0.7650   -3.3840 ca        1 583     -0.185500
      5 C12         2.9660   -0.7200   -3.3950 ca        1 583     -0.192000
      6 C13         4.3560    0.8920   -2.2020 ca        1 583     -0.192000
      7 C14        -2.7440   -0.0010   -3.3300 ca        1 583      0.122100
      8 C15         4.0990    0.1030   -3.3350 ca        1 583      0.128100
      9 C4         -0.4130   -0.1690    1.2830 cd        1 583     -0.142300
     10 C5          2.3310    0.0300   -1.1780 ca        1 583     -0.155500
     11 N1          1.8500   -0.0490    1.2570 nd        1 583     -0.510800
     12 C6         -2.1200   -0.8400   -1.1610 ca        1 583     -0.087000
     13 C7         -0.6770    0.7210   -2.3180 ca        1 583     -0.087000
     14 N2          0.7660   -0.1290    2.0230 na        1 583     -0.012600
     15 C8          2.0890   -0.7520   -2.3150 ca        1 583     -0.071500
     16 C9          3.4720    0.8460   -1.1300 ca        1 583     -0.071500
     17 C10        -3.0220   -0.8090   -2.2160 ca        1 583     -0.185500
     18 H1         -3.3640    0.5910   -5.0380 ho        1 583      0.419000
     19 H2          4.7250   -0.4150   -5.0650 ho        1 583      0.419000
     20 H3         -1.3590    1.3960   -4.2580 ha        1 583      0.142500
     21 H4          2.7740   -1.3380   -4.2840 ha        1 583      0.143000
     22 H5          5.2510    1.5290   -2.1750 ha        1 583      0.143000
     23 H6         -1.3970   -0.2310    1.7450 h4        1 583      0.179000
     24 H8         -2.3300   -1.4720   -0.2840 ha        1 583      0.140000
     25 H9          0.2490    1.3160   -2.3540 ha        1 583      0.140000
     26 H10         1.1940   -1.3930   -2.3540 ha        1 583      0.146500
     27 H11         3.6730    1.4560   -0.2360 ha        1 583      0.146500
     28 H12        -3.9460   -1.4050   -2.1950 ha        1 583      0.142500
     29 H7          0.8560   -0.1640    3.0110 hn        1 583      0.323700
     30 O1         -3.6740   -0.0100   -4.3450 oh        1 583     -0.498100
     31 O2          5.0090    0.1900   -4.3640 oh        1 583     -0.497100
@<TRIPOS>BOND
     1    1    2 1   
     2    1    3 1   
     3    1    9 2   
     4    2   10 1   
     5    2   11 2   
     6    3   12 ar  
     7    3   13 ar  
     8    4    7 ar  
     9    4   13 ar  
    10    4   20 1   
    11    5    8 ar  
    12    5   15 ar  
    13    5   21 1   
    14    6    8 ar  
    15    6   16 ar  
    16    6   22 1   
    17    7   17 ar  
    18    7   30 1   
    19    8   31 1   
    20    9   14 1   
    21    9   23 1   
    22   10   15 ar  
    23   10   16 ar  
    24   11   14 1   
    25   12   17 ar  
    26   12   24 1   
    27   13   25 1   
    28   14   29 1   
    29   15   26 1   
    30   16   27 1   
    31   17   28 1   
    32   18   30 1   
    33   19   31 1   
@<TRIPOS>SUBSTRUCTURE
     1 583         1 TEMP              0 ****  ****    0 ROOT
