@<TRIPOS>MOLECULE
molecule
   51    53     1     0     0
SMALL
bcc


@<TRIPOS>ATOM
      1 C1           0.0000     0.0000     0.0000 ca         1 584       0.934900
      2 C2          -0.0890     0.0080     2.3010 ca         1 584       0.668200
      3 C3           1.3100     0.0000     2.3320 ca         1 584      -0.258000
      4 O2           2.1600     0.4560    -5.9450 oh         1 584      -0.495100
      5 C11         -5.2870     1.4280     1.9240 c3         1 584      -0.086100
      6 C12         -4.5790    -0.9370     1.5380 c3         1 584      -0.086100
      7 C14          0.0450     0.1130    -2.4100 ca         1 584       0.211600
      8 C15         -0.4040    -0.5350    -3.5540 ca         1 584      -0.198500
      9 C16          0.3040    -0.4210    -4.7360 ca         1 584       0.156900
     10 C17          1.4630     0.3420    -4.7800 ca         1 584       0.004100
     11 C18          1.9120     0.9910    -3.6380 ca         1 584       0.156900
     12 C19          1.2010     0.8810    -2.4570 ca         1 584      -0.198500
     13 N1           1.3240     0.0000     0.0000 nb         1 584      -0.788000
     14 N2          -0.7030     0.0060     1.1240 nb         1 584      -0.807000
     15 C4           2.0070     0.0000     1.1390 ca         1 584       0.477200
     16 N3          -0.6720    -0.0020    -1.2130 nu         1 584      -0.753300
     17 N4          -0.8130     0.0240     3.4790 nh         1 584      -0.686300
     18 C5          -2.1920    -0.4310     3.2560 c3         1 584       0.173800
     19 C6          -2.9950     0.6860     2.5870 c3         1 584      -0.080400
     20 C7          -4.4620     0.2650     2.4780 c3         1 584      -0.077700
     21 C8          -0.1660    -0.7620     4.5340 c3         1 584       0.110500
     22 C9           1.2810    -0.3610     4.6700 c          1 584       0.706500
     23 N5           1.9780    -0.0070     3.5660 n          1 584      -0.367000
     24 C10         -0.8860    -0.5190     5.8620 c3         1 584      -0.086100
     25 F1          -0.1320    -1.0520    -5.8490 f          1 584      -0.123400
     26 F2           3.0400     1.7330    -3.6820 f          1 584      -0.123400
     27 H1           2.8010    -0.2340    -5.9960 ho         1 584       0.420000
     28 H2          -4.9220     1.6930     0.9390 hc         1 584       0.033700
     29 H3          -5.1970     2.2820     2.5840 hc         1 584       0.033700
     30 H4          -6.3270     1.1330     1.8560 hc         1 584       0.033700
     31 H5          -4.2100    -1.8240     2.0380 hc         1 584       0.033700
     32 H6          -5.6180    -1.0820     1.2660 hc         1 584       0.033700
     33 H7          -3.9940    -0.7550     0.6450 hc         1 584       0.033700
     34 H8           3.6510     0.5520     4.6920 h1         1 584       0.053700
     35 H9           4.0030    -0.4500     3.2780 h1         1 584       0.053700
     36 H10          3.5730     1.2540     3.0700 h1         1 584       0.053700
     37 H11         -1.3070    -1.1320    -3.5190 ha         1 584       0.165500
     38 H12          1.5510     1.3870    -1.5650 ha         1 584       0.165500
     39 H13          3.0900    -0.0000     1.1320 h4         1 584       0.040100
     40 H14         -1.6680    -0.0980    -1.2330 hn         1 584       0.471800
     41 H15         -2.6470    -0.6830     4.2060 h1         1 584       0.050200
     42 H16         -2.1850    -1.3040     2.6150 h1         1 584       0.050200
     43 H17         -2.5990     0.8720     1.5960 hc         1 584       0.064200
     44 H18         -2.9220     1.5890     3.1800 hc         1 584       0.064200
     45 H19         -4.8340    -0.0060     3.4590 hc         1 584       0.045700
     46 H20         -0.2210    -1.8130     4.2790 h1         1 584       0.060700
     47 H21         -1.7800    -1.1290     5.9050 hc         1 584       0.058367
     48 H22         -1.1590     0.5270     5.9390 hc         1 584       0.058367
     49 H23         -0.2300    -0.7820     6.6830 hc         1 584       0.058367
     50 O1           1.8150    -0.3560     5.7590 o          1 584      -0.616500
     51 C13          3.3930     0.3610     3.6570 c3         1 584       0.094300
@<TRIPOS>BOND
     1     6    20 1   
     2    24    21 1   
     3    20     5 1   
     4    20    19 1   
     5    18    19 1   
     6    18    17 1   
     7    21    17 1   
     8    21    22 1   
     9    17     2 1   
    10    50    22 2   
    11     4    10 1   
    12    22    23 1   
    13    26    11 1   
    14    10    11 ar  
    15    10     9 ar  
    16    11    12 ar  
    17     2    14 ar  
    18     2     3 ar  
    19    14     1 ar  
    20    23     3 1   
    21    23    51 1   
    22     9    25 1   
    23     9     8 ar  
    24    12     7 ar  
    25     3    15 ar  
    26     8     7 ar  
    27     7    16 1   
    28     1    16 1   
    29     1    13 ar  
    30    15    13 ar  
    31     4    27 1   
    32     5    28 1   
    33     5    29 1   
    34     5    30 1   
    35     6    31 1   
    36     6    32 1   
    37     6    33 1   
    38    51    34 1   
    39    51    35 1   
    40    51    36 1   
    41     8    37 1   
    42    12    38 1   
    43    15    39 1   
    44    16    40 1   
    45    18    41 1   
    46    18    42 1   
    47    19    43 1   
    48    19    44 1   
    49    20    45 1   
    50    21    46 1   
    51    24    47 1   
    52    24    48 1   
    53    24    49 1   
@<TRIPOS>SUBSTRUCTURE
     1 584         1 TEMP              0 ****  ****    0 ROOT
