@<TRIPOS>MOLECULE
584
   51    53     1     0     0
SMALL
bcc


@<TRIPOS>ATOM
      1 C1           0.0000     0.0000     0.0000 ca         1 584       0.704900
      2 C2          -0.0890     0.0080     2.3010 ca         1 584       0.542200
      3 C3           1.3100     0.0000     2.3320 ca         1 584      -0.400000
      4 O2           2.1600     0.4560    -5.9450 oh         1 584      -0.473100
      5 C11         -5.2870     1.4280     1.9240 c3         1 584       0.005400
      6 C12         -4.5790    -0.9370     1.5380 c3         1 584       0.005400
      7 C14          0.0450     0.1130    -2.4100 ca         1 584       0.042600
      8 C15         -0.4040    -0.5350    -3.5540 ca         1 584      -0.158500
      9 C16          0.3040    -0.4210    -4.7360 ca         1 584       0.120400
     10 C17          1.4630     0.3420    -4.7800 ca         1 584       0.044100
     11 C18          1.9120     0.9910    -3.6380 ca         1 584       0.120400
     12 C19          1.2010     0.8810    -2.4570 ca         1 584      -0.158500
     13 N1           1.3240     0.0000     0.0000 nb         1 584      -0.690000
     14 N2          -0.7030     0.0060     1.1240 nb         1 584      -0.695000
     15 C4           2.0070     0.0000     1.1390 ca         1 584       0.473200
     16 N3          -0.6720    -0.0020    -1.2130 nu         1 584      -0.286300
     17 N4          -0.8130     0.0240     3.4790 nh         1 584      -0.429300
     18 C5          -2.1920    -0.4310     3.2560 c3         1 584       0.129800
     19 C6          -2.9950     0.6860     2.5870 c3         1 584      -0.047400
     20 C7          -4.4620     0.2650     2.4780 c3         1 584      -0.049700
     21 C8          -0.1660    -0.7620     4.5340 c3         1 584       0.052500
     22 C9           1.2810    -0.3610     4.6700 c          1 584       0.612500
     23 N5           1.9780    -0.0070     3.5660 n          1 584       0.034000
     24 C10         -0.8860    -0.5190     5.8620 c3         1 584      -0.001100
     25 F1          -0.1320    -1.0520    -5.8490 f          1 584      -0.116900
     26 F2           3.0400     1.7330    -3.6820 f          1 584      -0.116900
     27 H1           2.8010    -0.2340    -5.9960 ho         1 584       0.405000
     28 H2          -4.9220     1.6930     0.9390 hc         1 584       0.002700
     29 H3          -5.1970     2.2820     2.5840 hc         1 584       0.002700
     30 H4          -6.3270     1.1330     1.8560 hc         1 584       0.002700
     31 H5          -4.2100    -1.8240     2.0380 hc         1 584       0.002700
     32 H6          -5.6180    -1.0820     1.2660 hc         1 584       0.002700
     33 H7          -3.9940    -0.7550     0.6450 hc         1 584       0.002700
     34 H8           3.6510     0.5520     4.6920 h1         1 584       0.023033
     35 H9           4.0030    -0.4500     3.2780 h1         1 584       0.023033
     36 H10          3.5730     1.2540     3.0700 h1         1 584       0.023033
     37 H11         -1.3070    -1.1320    -3.5190 ha         1 584       0.141000
     38 H12          1.5510     1.3870    -1.5650 ha         1 584       0.141000
     39 H13          3.0900    -0.0000     1.1320 h4         1 584      -0.003900
     40 H14         -1.6680    -0.0980    -1.2330 hn         1 584       0.297800
     41 H15         -2.6470    -0.6830     4.2060 h1         1 584       0.029200
     42 H16         -2.1850    -1.3040     2.6150 h1         1 584       0.029200
     43 H17         -2.5990     0.8720     1.5960 hc         1 584       0.038200
     44 H18         -2.9220     1.5890     3.1800 hc         1 584       0.038200
     45 H19         -4.8340    -0.0060     3.4590 hc         1 584       0.022700
     46 H20         -0.2210    -1.8130     4.2790 h1         1 584       0.034700
     47 H21         -1.7800    -1.1290     5.9050 hc         1 584       0.024367
     48 H22         -1.1590     0.5270     5.9390 hc         1 584       0.024367
     49 H23         -0.2300    -0.7820     6.6830 hc         1 584       0.024367
     50 O1           1.8150    -0.3560     5.7590 o          1 584      -0.654500
     51 C13          3.3930     0.3610     3.6570 c3         1 584       0.061300
@<TRIPOS>BOND
     1     1    13 ar  
     2     1    14 ar  
     3     1    16 1   
     4     2     3 ar  
     5     2    14 ar  
     6     2    17 1   
     7     3    15 ar  
     8     3    23 1   
     9     4    10 1   
    10     4    27 1   
    11     5    20 1   
    12     5    28 1   
    13     5    29 1   
    14     5    30 1   
    15     6    20 1   
    16     6    31 1   
    17     6    32 1   
    18     6    33 1   
    19     7     8 ar  
    20     7    12 ar  
    21     7    16 1   
    22     8     9 ar  
    23     8    37 1   
    24     9    10 ar  
    25     9    25 1   
    26    10    11 ar  
    27    11    12 ar  
    28    11    26 1   
    29    12    38 1   
    30    13    15 ar  
    31    15    39 1   
    32    16    40 1   
    33    17    18 1   
    34    17    21 1   
    35    18    19 1   
    36    18    41 1   
    37    18    42 1   
    38    19    20 1   
    39    19    43 1   
    40    19    44 1   
    41    20    45 1   
    42    21    22 1   
    43    21    24 1   
    44    21    46 1   
    45    22    23 1   
    46    22    50 2   
    47    23    51 1   
    48    24    47 1   
    49    24    48 1   
    50    24    49 1   
    51    34    51 1   
    52    35    51 1   
    53    36    51 1   
@<TRIPOS>SUBSTRUCTURE
     1 584         1 TEMP              0 ****  ****    0 ROOT
