@<TRIPOS>MOLECULE
molecule
   57    60     1     0     0
SMALL
bcc


@<TRIPOS>ATOM
      1 N1           0.0000     0.0000     0.0000 ns         1 585      -0.535400
      2 N2           2.0100    -0.1110     3.5510 nb         1 585      -0.771000
      3 C3           1.3980     0.0000     0.0000 ca         1 585       0.524200
      4 C4           3.3390    -0.1090     3.5700 ca         1 585       0.725200
      5 C5          -0.6580    -0.3150    -1.1350 c          1 585       0.683500
      6 N6           2.0700     0.0000     1.1410 nb         1 585      -0.698000
      7 C7           1.3210    -0.2150     4.6770 ca         1 585       0.952900
      8 O8           1.3700    -0.0040    -2.3820 os         1 585      -0.314900
      9 C9           0.1170    -0.6950    -2.3710 c3         1 585       0.085800
     10 C11          4.0010    -0.2180     4.7970 ca         1 585      -0.228700
     11 C12         -2.2940    -0.2110     8.1540 ca         1 585       0.029100
     12 C13          2.0750    -0.0020    -1.2190 ca         1 585      -0.054200
     13 C14          3.3940     0.0010     1.1630 ca         1 585       0.684200
     14 C15         -1.0690     0.4450     8.1030 ca         1 585       0.173600
     15 C16         -2.7750    -0.8690     7.0280 ca         1 585       0.173600
     16 N17          1.9190    -0.3200     5.8540 nb         1 585      -0.793000
     17 C18         -0.8120    -0.2130     5.8070 ca         1 585       0.226600
     18 C19         -0.3300     0.4440     6.9310 ca         1 585      -0.269500
     19 C20         -2.0350    -0.8690     5.8560 ca         1 585      -0.269500
     20 N21         -0.0640    -0.2150     4.6230 nu         1 585      -0.748300
     21 C22          3.2420    -0.3250     5.9480 ca         1 585       0.487200
     22 O23         -1.8700    -0.2910    -1.1620 o          1 585      -0.609500
     23 C24          3.4600    -0.0020    -1.2310 ca         1 585      -0.062000
     24 F25          5.3500    -0.2200     4.8560 f          1 585      -0.141900
     25 C26          4.1290    -0.0010    -0.0150 ca         1 585      -0.297300
     26 O28         -3.9720    -1.5110     7.0760 os         1 585      -0.309900
     27 O29         -0.5970     1.0890     9.2050 os         1 585      -0.309900
     28 C30          0.3670    -2.2040    -2.3700 c3         1 585      -0.091600
     29 C31         -0.6870    -0.3130    -3.6160 c3         1 585      -0.091600
     30 C32         -3.9500     0.8520     9.4900 c3         1 585       0.133700
     31 C33         -4.4060    -2.1660     5.8830 c3         1 585       0.126200
     32 C34          0.6670     1.7420     9.0810 c3         1 585       0.126200
     33 HN1         -0.5000     0.3780     0.7800 hn         1 585       0.348500
     34 HN10         5.0570     0.0820     2.4160 hn         1 585       0.479800
     35 H19          0.6240     0.9550     6.8910 ha         1 585       0.153500
     36 H20         -2.4100    -1.3810     4.9790 ha         1 585       0.153500
     37 HN21        -0.5300    -0.1840     3.7370 hn         1 585       0.469800
     38 H22          3.7230    -0.4110     6.9150 h4         1 585       0.043100
     39 H24          4.0080    -0.0030    -2.1660 ha         1 585       0.159000
     40 H26          5.2120    -0.0000     0.0150 ha         1 585       0.145000
     41 H30          0.7960    -2.4990    -1.4200 hc         1 585       0.057033
     42 H30A         1.0540    -2.4570    -3.1700 hc         1 585       0.057033
     43 H30B        -0.5700    -2.7260    -2.5210 hc         1 585       0.057033
     44 H31         -0.1150    -0.5550    -4.5030 hc         1 585       0.057033
     45 H31A        -1.6200    -0.8630    -3.6270 hc         1 585       0.057033
     46 H31B        -0.8950     0.7500    -3.5990 hc         1 585       0.057033
     47 H32         -4.9500     0.4450     9.5860 h1         1 585       0.032367
     48 H32A        -3.6940     1.3950    10.3920 h1         1 585       0.032367
     49 H32B        -3.9130     1.5230     8.6410 h1         1 585       0.032367
     50 H33         -5.3710    -2.6260     6.0540 h1         1 585       0.042700
     51 H33A        -3.6870    -2.9270     5.6060 h1         1 585       0.042700
     52 H33B        -4.4890    -1.4400     5.0820 h1         1 585       0.042700
     53 H34          1.4370     1.0050     8.8870 h1         1 585       0.042700
     54 H34A         0.8940     2.2670    10.0020 h1         1 585       0.042700
     55 H34B         0.6300     2.4500     8.2620 h1         1 585       0.042700
     56 N10          4.0600     0.0010     2.3880 nu         1 585      -0.857600
     57 O27         -3.0180    -0.2150     9.3060 os         1 585      -0.321900
@<TRIPOS>BOND
     1     1     3 1   
     2     1     5 1   
     3     2     4 ar  
     4     2     7 ar  
     5     3     6 ar  
     6     3    12 ar  
     7     4    56 1   
     8     4    10 ar  
     9     5     9 1   
    10     5    22 2   
    11     6    13 ar  
    12     7    16 ar  
    13     7    20 1   
    14     8     9 1   
    15     8    12 1   
    16     9    28 1   
    17     9    29 1   
    18    56    13 1   
    19    10    21 ar  
    20    10    24 1   
    21    11    14 ar  
    22    11    15 ar  
    23    11    57 1   
    24    12    23 ar  
    25    13    25 ar  
    26    14    18 ar  
    27    14    27 1   
    28    15    19 ar  
    29    15    26 1   
    30    16    21 ar  
    31    17    18 ar  
    32    17    19 ar  
    33    17    20 1   
    34    23    25 ar  
    35    57    30 1   
    36    26    31 1   
    37    27    32 1   
    38     1    33 1   
    39    56    34 1   
    40    18    35 1   
    41    19    36 1   
    42    20    37 1   
    43    21    38 1   
    44    23    39 1   
    45    25    40 1   
    46    28    41 1   
    47    28    42 1   
    48    28    43 1   
    49    29    44 1   
    50    29    45 1   
    51    29    46 1   
    52    30    47 1   
    53    30    48 1   
    54    30    49 1   
    55    31    50 1   
    56    31    51 1   
    57    31    52 1   
    58    32    53 1   
    59    32    54 1   
    60    32    55 1   
@<TRIPOS>SUBSTRUCTURE
     1 585         1 TEMP              0 ****  ****    0 ROOT
