@<TRIPOS>MOLECULE
588
   72    75     1     0     0
SMALL
bcc


@<TRIPOS>ATOM
      1 O6           0.0000     0.0000     0.0000 o          1 588      -0.556000
      2 C24          1.3460     0.0000     0.0000 c2         1 588       0.391000
      3 O7           1.9520     0.0000     1.0510 o          1 588      -0.556000
      4 C8           2.0930    -0.0010    -1.2920 c2         1 588       0.216000
      5 O5           1.4860    -0.0010    -2.3430 o          1 588      -0.336000
      6 N4           3.4400    -0.0010    -1.2920 n          1 588       0.143000
      7 C2           4.1370     0.0000    -0.0850 c2         1 588       0.141000
      8 C3           4.6100     1.1910     0.4460 c2         1 588      -0.100000
      9 C4           5.3010     1.1900     1.6430 c2         1 588      -0.021000
     10 C5           5.5260     0.0040     2.3220 c2         1 588      -0.125000
     11 C6           5.0680    -1.1900     1.8090 c2         1 588      -0.059000
     12 C1           4.3630    -1.2050     0.6010 c3         1 588      -0.117000
     13 C17          3.8670    -2.4740     0.0500 c2         1 588      -0.020000
     14 C18          3.9960    -3.6140     0.7600 c2         1 588      -0.378000
     15 C19          3.6140    -4.8950     0.1640 c3         1 588       0.085000
     16 O1           3.2680    -4.9440    -1.0020 o          1 588      -0.382000
     17 N3           3.6440    -6.0190     0.9060 nz         1 588       0.820000
     18 C7           6.2800     0.0190     3.6260 c3         1 588      -0.068000
     19 C9           5.2870     0.0730     4.7890 c3         1 588       0.000000
     20 N1           4.4120    -1.1000     4.7400 n7         1 588      -0.545000
     21 S1           4.7760    -2.4430     5.6400 s6         1 588       2.303000
     22 O4           6.1120    -2.7290     5.2520 o          1 588      -0.875000
     23 O2           3.7000    -3.3220     5.3430 o          1 588      -0.875000
     24 C20          4.6910    -1.8320     7.3450 c3         1 588      -0.577000
     25 C11          4.4560     1.3250     4.6810 c2         1 588       0.179000
     26 O8           3.3350     1.2720     4.2190 o          1 588      -0.336000
     27 N2           4.9560     2.5060     5.0970 ns         1 588      -0.020000
     28 C12          4.1470     3.7230     4.9910 c3         1 588      -0.068000
     29 C13          4.9440     4.9130     5.5270 c3         1 588      -0.120000
     30 C15          4.1000     6.1840     5.4180 c3         1 588      -0.103000
     31 C14          4.8970     7.3750     5.9550 c3         1 588      -0.107000
     32 C16          4.0530     8.6450     5.8440 c3         1 588      -0.111000
     33 C26          4.1360    -0.0010    -2.4970 ca         1 588      -0.059000
     34 C27          4.6230    -1.1920    -3.0220 ca         1 588      -0.122000
     35 C28          5.3140    -1.1890    -4.2170 ca         1 588      -0.130000
     36 C29          5.5270    -0.0040    -4.9020 ca         1 588      -0.133000
     37 C30          5.0520     1.1870    -4.3970 ca         1 588      -0.062000
     38 C25          4.3470     1.2010    -3.1920 ca         1 588      -0.065000
     39 C31          3.8350     2.4720    -2.6460 c2         1 588       0.421000
     40 O9           3.1310     2.4670    -1.6560 o          1 588      -0.609500
     41 O10          4.1510     3.6370    -3.2440 o          1 588      -0.609500
     42 H3           4.4390     2.1240    -0.0780 ha         1 588       0.193000
     43 H4           5.6670     2.1230     2.0540 ha         1 588       0.096000
     44 H6           5.2470    -2.1150     2.3440 ha         1 588       0.127000
     45 H17          3.2840    -1.8870     0.7500 DU         1 588       0.259000
     46 H18          2.9670    -3.9550     0.7480 DU         1 588       0.068000
     47 HN31         3.0540    -5.9060     1.7070 hn         1 588       0.017000
     48 HN32         3.3180    -6.7900     0.3580 hn         1 588       0.017000
     49 H71          6.9250     0.8890     3.6600 hc         1 588       0.069500
     50 H72          6.8810    -0.8790     3.7060 hc         1 588       0.069500
     51 H9           5.8300     0.0800     5.7270 h1         1 588       0.050000
     52 HN1          3.5710    -1.0750     4.1980 hn         1 588       0.197000
     53 H201         4.6060    -2.6710     8.0250 h1         1 588       0.100667
     54 H202         5.5900    -1.2720     7.5740 h1         1 588       0.100667
     55 H203         3.8270    -1.1890     7.4560 h1         1 588       0.100667
     56 HN2          5.8810     2.5520     5.4750 hn         1 588       0.078000
     57 H121         3.8920     3.8980     3.9530 h1         1 588       0.076000
     58 H122         3.2400     3.6050     5.5710 h1         1 588       0.076000
     59 H131         5.1990     4.7380     6.5650 hc         1 588       0.050000
     60 H132         5.8510     5.0310     4.9470 hc         1 588       0.050000
     61 H151         3.1930     6.0650     5.9970 hc         1 588       0.063500
     62 H152         3.8450     6.3590     4.3800 hc         1 588       0.063500
     63 H141         5.1520     7.2000     6.9930 hc         1 588       0.047500
     64 H142         5.8040     7.4930     5.3750 hc         1 588       0.047500
     65 H161         3.1430     8.5250     6.4210 hc         1 588       0.040000
     66 H162         3.8010     8.8220     4.8050 hc         1 588       0.040000
     67 H163         4.6160     9.4870     6.2280 hc         1 588       0.040000
     68 H27          4.4610    -2.1230    -2.4930 ha         1 588       0.102000
     69 H28          5.6920    -2.1200    -4.6220 ha         1 588       0.081000
     70 H29          6.0720    -0.0130    -5.8380 ha         1 588       0.082000
     71 H30          5.2200     2.1110    -4.9380 ha         1 588       0.129000
     72 H33          4.5810    -6.1920     1.2120 hn         1 588       0.017000
@<TRIPOS>BOND
     1     1     2 1   
     2     2     3 1   
     3     2     4 1   
     4     4     5 1   
     5     4     6 1   
     6     6     7 1   
     7     6    33 1   
     8     7     8 1   
     9     7    12 1   
    10     8     9 1   
    11     8    42 1   
    12     9    10 1   
    13     9    43 1   
    14    10    11 1   
    15    10    18 1   
    16    11    12 1   
    17    11    44 1   
    18    12    13 1   
    19    12    45 1   
    20    13    14 1   
    21    13    45 1   
    22    14    15 1   
    23    14    46 1   
    24    15    16 1   
    25    15    17 1   
    26    15    46 1   
    27    17    47 1   
    28    17    48 1   
    29    17    72 1   
    30    18    19 1   
    31    18    49 1   
    32    18    50 1   
    33    19    20 1   
    34    19    25 1   
    35    19    51 1   
    36    20    21 1   
    37    20    52 1   
    38    21    22 1   
    39    21    23 1   
    40    21    24 1   
    41    24    53 1   
    42    24    54 1   
    43    24    55 1   
    44    25    26 1   
    45    25    27 1   
    46    27    28 1   
    47    27    56 1   
    48    28    29 1   
    49    28    57 1   
    50    28    58 1   
    51    29    30 1   
    52    29    59 1   
    53    29    60 1   
    54    30    31 1   
    55    30    61 1   
    56    30    62 1   
    57    31    32 1   
    58    31    63 1   
    59    31    64 1   
    60    32    65 1   
    61    32    66 1   
    62    32    67 1   
    63    33    34 1   
    64    33    38 1   
    65    34    35 1   
    66    34    68 1   
    67    35    36 1   
    68    35    69 1   
    69    36    37 1   
    70    36    70 1   
    71    37    38 1   
    72    37    71 1   
    73    38    39 1   
    74    39    40 1   
    75    39    41 1   
@<TRIPOS>SUBSTRUCTURE
     1 588         1 TEMP              0 ****  ****    0 ROOT
