@<TRIPOS>MOLECULE
molecule
   72    73     1     0     0
SMALL
bcc


@<TRIPOS>ATOM
      1 O6           0.0000     0.0000     0.0000 o          1 588      -0.798300
      2 C24          1.3460     0.0000     0.0000 c          1 588       0.833600
      3 O7           1.9520     0.0000     1.0510 o          1 588      -0.798300
      4 C8           2.0930    -0.0010    -1.2920 c          1 588       0.594100
      5 O5           1.4860    -0.0010    -2.3430 o          1 588      -0.565100
      6 N4           3.4400    -0.0010    -1.2920 n          1 588      -0.331200
      7 C2           4.1370     0.0000    -0.0850 ca         1 588       0.257600
      8 C3           4.6100     1.1910     0.4460 ca         1 588      -0.104000
      9 C4           5.3010     1.1900     1.6430 ca         1 588      -0.066000
     10 C5           5.5260     0.0040     2.3220 ca         1 588      -0.135300
     11 C6           5.0680    -1.1900     1.8090 ca         1 588      -0.068000
     12 C1           4.3630    -1.2050     0.6010 ca         1 588      -0.153800
     13 C17          3.8670    -2.4740     0.0500 ce         1 588       0.183800
     14 C18          3.9960    -3.6140     0.7600 cf         1 588      -0.421200
     15 C19          3.6140    -4.8950     0.1640 c          1 588       0.472300
     16 O1           3.2680    -4.9440    -1.0020 o          1 588      -0.498100
     17 N3           3.6440    -6.0190     0.9060 nz         1 588      -0.666400
     18 C7           6.2800     0.0190     3.6260 c3         1 588      -0.037100
     19 C9           5.2870     0.0730     4.7890 c3         1 588       0.182500
     20 N1           4.4120    -1.1000     4.7400 n7         1 588      -0.885100
     21 S1           4.7760    -2.4430     5.6400 s6         1 588       1.321900
     22 O4           6.1120    -2.7290     5.2520 o          1 588      -0.646300
     23 O2           3.7000    -3.3220     5.3430 o          1 588      -0.646300
     24 C20          4.6910    -1.8320     7.3450 c3         1 588      -0.255300
     25 C11          4.4560     1.3250     4.6810 c          1 588       0.632100
     26 O8           3.3350     1.2720     4.2190 o          1 588      -0.532100
     27 N2           4.9560     2.5060     5.0970 ns         1 588      -0.596900
     28 C12          4.1470     3.7230     4.9910 c3         1 588       0.112000
     29 C13          4.9440     4.9130     5.5270 c3         1 588      -0.101400
     30 C15          4.1000     6.1840     5.4180 c3         1 588      -0.078400
     31 C14          4.8970     7.3750     5.9550 c3         1 588      -0.083400
     32 C16          4.0530     8.6450     5.8440 c3         1 588      -0.092100
     33 C26          4.1360    -0.0010    -2.4970 ca         1 588       0.072600
     34 C27          4.6230    -1.1920    -3.0220 ca         1 588      -0.162000
     35 C28          5.3140    -1.1890    -4.2170 ca         1 588      -0.154000
     36 C29          5.5270    -0.0040    -4.9020 ca         1 588      -0.162000
     37 C30          5.0520     1.1870    -4.3970 ca         1 588      -0.089000
     38 C25          4.3470     1.2010    -3.1920 ca         1 588      -0.085600
     39 C31          3.8350     2.4720    -2.6460 c          1 588       0.879200
     40 O9           3.1310     2.4670    -1.6560 o          1 588      -0.824300
     41 O10          4.1510     3.6370    -3.2440 o          1 588      -0.824300
     42 H3           4.4390     2.1240    -0.0780 ha         1 588       0.215000
     43 H4           5.6670     2.1230     2.0540 ha         1 588       0.124000
     44 H6           5.2470    -2.1150     2.3440 ha         1 588       0.106000
     45 H17          3.4800    -2.5080    -0.9610 ha         1 588       0.177000
     46 H18          4.4650    -3.5930     1.7360 ha         1 588       0.144000
     47 HN31         3.4300    -6.8070     0.3270 hn         1 588       0.456800
     48 HN32         4.5560    -6.1330     1.3020 hn         1 588       0.456800
     49 H71          6.9250     0.8890     3.6600 hc         1 588       0.055200
     50 H72          6.8810    -0.8790     3.7060 hc         1 588       0.055200
     51 H9           5.8300     0.0800     5.7270 h1         1 588       0.036700
     52 HN1          3.5650    -1.0700     4.2070 hn         1 588       0.503800
     53 H201         4.4250    -2.6470     8.0080 h1         1 588       0.097367
     54 H202         3.9420    -1.0520     7.4130 h1         1 588       0.097367
     55 H203         5.6560    -1.4330     7.6350 h1         1 588       0.097367
     56 HN2          5.8720     2.5480     5.4970 hn         1 588       0.299500
     57 H121         3.8920     3.8980     3.9530 h1         1 588       0.064700
     58 H122         3.2400     3.6050     5.5710 h1         1 588       0.064700
     59 H131         5.8510     5.0310     4.9470 hc         1 588       0.038700
     60 H132         5.1990     4.7380     6.5650 hc         1 588       0.038700
     61 H151         3.1930     6.0650     5.9980 hc         1 588       0.052200
     62 H152         3.8450     6.3590     4.3800 hc         1 588       0.052200
     63 H141         5.8040     7.4930     5.3750 hc         1 588       0.036200
     64 H142         5.1520     7.2000     6.9930 hc         1 588       0.036200
     65 H161         4.6170     9.4880     6.2240 hc         1 588       0.033033
     66 H162         3.1450     8.5270     6.4240 hc         1 588       0.033033
     67 H163         3.7980     8.8200     4.8060 hc         1 588       0.033033
     68 H27          4.4610    -2.1230    -2.4930 ha         1 588       0.099000
     69 H28          5.6920    -2.1200    -4.6220 ha         1 588       0.097000
     70 H29          6.0720    -0.0130    -5.8380 ha         1 588       0.103000
     71 H30          5.2200     2.1110    -4.9380 ha         1 588       0.156000
     72 H33          2.9630    -5.9550     1.6370 hn         1 588       0.456800
@<TRIPOS>BOND
     1     1     2 1
     2     2     3 1
     3     2     4 1
     4     4     5 2
     5     4     6 1
     6     6     7 1
     7     6    33 1
     8     7     8 ar
     9     7    12 ar
    10     8     9 ar
    11     8    42 1
    12     9    10 ar
    13     9    43 1
    14    10    11 ar
    15    10    18 1
    16    11    12 ar
    17    11    44 1
    18    12    13 1
    19    13    14 2
    20    13    45 1
    21    14    15 1
    22    14    46 1
    23    15    16 2
    24    15    17 1
    25    17    47 1
    26    17    48 1
    27    18    19 1
    28    18    49 1
    29    18    50 1
    30    19    20 1
    31    19    25 1
    32    19    51 1
    33    20    21 1
    34    20    52 1
    35    21    22 2
    36    21    23 2
    37    21    24 1
    38    24    53 1
    39    24    54 1
    40    24    55 1
    41    25    26 2
    42    25    27 1
    43    27    28 1
    44    27    56 1
    45    28    29 1
    46    28    57 1
    47    28    58 1
    48    29    30 1
    49    29    59 1
    50    29    60 1
    51    30    31 1
    52    30    61 1
    53    30    62 1
    54    31    32 1
    55    31    63 1
    56    31    64 1
    57    32    65 1
    58    32    66 1
    59    32    67 1
    60    33    34 ar
    61    33    38 ar
    62    34    35 ar
    63    34    68 1
    64    35    36 ar
    65    35    69 1
    66    36    37 ar
    67    36    70 1
    68    37    38 ar
    69    37    71 1
    70    38    39 1
    71    39    40 1
    72    39    41 1
    73    72    17 1
@<TRIPOS>SUBSTRUCTURE
     1 588         1 TEMP              0 ****  ****    0 ROOT
