@<TRIPOS>MOLECULE
589
   66    71     1     0     0
SMALL
bcc


@<TRIPOS>ATOM
      1 C1           0.0000     0.0000     0.0000 ca         1 589      -0.090000
      2 C2           1.4050     0.0000     0.0000 ca         1 589      -0.025000
      3 C3           2.0990     0.0000     1.2350 ca         1 589      -0.039000
      4 C4           1.3700     0.0000     2.4360 ca         1 589      -0.081000
      5 C5           0.0080    -0.0000     2.3980 ca         1 589      -0.096000
      6 C6          -0.6740    -0.0010     1.1840 ca         1 589      -0.088000
      7 C7           3.5040     0.0000     1.2370 ca         1 589      -0.054000
      8 C8           4.1840    -0.0010     0.0400 ca         1 589      -0.095400
      9 C9           3.4910    -0.0020    -1.1750 ca         1 589      -0.086000
     10 C10          2.1310    -0.0010    -1.2040 ca         1 589      -0.077000
     11 N11          5.5840    -0.0010     0.0390 n          1 589       0.135500
     12 C12          6.3950     1.1110     0.1800 cc         1 589       0.292500
     13 N13          7.6390     0.7250     0.1300 nd         1 589      -0.588300
     14 N14          7.6560    -0.6640    -0.0480 n          1 589       0.116200
     15 C15          6.3750    -1.0840    -0.0950 c          1 589       0.555500
     16 O16          6.0000    -2.2340    -0.2360 o          1 589      -0.702500
     17 C17          8.8480    -1.5100    -0.1580 c3         1 589       0.068700
     18 C18          9.6860    -1.3810     1.1180 c3         1 589      -0.087400
     19 C19         10.9670    -2.2050     0.9630 c3         1 589       0.220400
     20 O20         11.6860    -1.7520    -0.1850 os         1 589      -0.408600
     21 C21         10.9700    -1.8910    -1.4150 c3         1 589       0.220400
     22 C22          9.6890    -1.0560    -1.3550 c3         1 589      -0.087400
     23 C23          5.9290     2.5040     0.3600 ca         1 589      -0.026900
     24 C24          4.5680     2.8240     0.2680 ca         1 589      -0.322300
     25 C25          4.1730     4.1330     0.4410 ca         1 589       0.462200
     26 N26          5.0550     5.0820     0.6900 nb         1 589      -0.650000
     27 C27          6.3520     4.8260     0.7850 ca         1 589       0.522200
     28 C28          6.8330     3.5330     0.6290 ca         1 589      -0.278300
     29 N29          7.2390     5.8640     1.0480 nu         1 589      -0.506900
     30 C30          8.6750     5.5900     1.1550 c3         1 589       0.127500
     31 C31          9.4610     6.8600     0.8250 c3         1 589      -0.041400
     32 C32         10.9600     6.5740     0.9360 c3         1 589      -0.019400
     33 C33         11.2900     6.1260     2.3610 c3         1 589      -0.027400
     34 C34         10.5030     4.8570     2.6910 c3         1 589      -0.019400
     35 C35          9.0040     5.1420     2.5810 c3         1 589      -0.041400
     36 H1          -0.5450    -0.0000    -0.9370 ha         1 589       0.109000
     37 H4           1.8870     0.0010     3.3880 ha         1 589       0.109000
     38 H5          -0.5520    -0.0000     3.3250 ha         1 589       0.104000
     39 H6          -1.7570    -0.0010     1.1800 ha         1 589       0.103000
     40 H7           4.0490     0.0010     2.1740 ha         1 589       0.118000
     41 H9           4.0450    -0.0030    -2.1060 ha         1 589       0.115000
     42 H10          1.6080    -0.0020    -2.1530 ha         1 589       0.112000
     43 H17          8.5540    -2.5440    -0.2950 h1         1 589       0.062700
     44 H18          9.9430    -0.3410     1.2780 hc         1 589       0.035950
     45 H18A         9.1170    -1.7530     1.9620 hc         1 589       0.035950
     46 H19         10.7100    -3.2500     0.8380 h1         1 589       0.009200
     47 H19A        11.5830    -2.0820     1.8460 h1         1 589       0.009200
     48 H21         11.5890    -1.5440    -2.2330 h1         1 589       0.009200
     49 H21A        10.7130    -2.9330    -1.5660 h1         1 589       0.009200
     50 H22          9.9450    -0.0100    -1.2400 hc         1 589       0.035950
     51 H22A         9.1230    -1.1970    -2.2680 hc         1 589       0.035950
     52 H24          3.8360     2.0520     0.0640 ha         1 589       0.145000
     53 H25          3.1220     4.3860     0.3720 h4         1 589      -0.022900
     54 H28          7.8940     3.3280     0.7060 ha         1 589       0.147000
     55 HN29         6.9000     6.8010     1.1400 hn         1 589       0.300800
     56 H30          8.9510     4.8070     0.4600 h1         1 589       0.046700
     57 H31          9.2290     7.1740    -0.1860 hc         1 589       0.021950
     58 H31A         9.1910     7.6430     1.5230 hc         1 589       0.021950
     59 H32         11.2290     5.7880     0.2410 hc         1 589       0.016450
     60 H32A        11.5160     7.4740     0.7040 hc         1 589       0.016450
     61 H33         12.3510     5.9210     2.4380 hc         1 589       0.015200
     62 H33A        11.0180     6.9100     3.0570 hc         1 589       0.015200
     63 H34         10.7720     4.0740     1.9930 hc         1 589       0.016450
     64 H34A        10.7350     4.5420     3.7020 hc         1 589       0.016450
     65 H35          8.7350     5.9270     3.2760 hc         1 589       0.021950
     66 H35A         8.4490     4.2410     2.8120 hc         1 589       0.021950
@<TRIPOS>BOND
     1     1     2 ar  
     2     1     6 ar  
     3     1    36 1   
     4     2     3 ar  
     5     2    10 ar  
     6     3     4 ar  
     7     3     7 ar  
     8     4     5 ar  
     9     4    37 1   
    10     5     6 ar  
    11     5    38 1   
    12     6    39 1   
    13     7     8 ar  
    14     7    40 1   
    15     8     9 ar  
    16     8    11 1   
    17     9    10 ar  
    18     9    41 1   
    19    10    42 1   
    20    11    12 1   
    21    11    15 1   
    22    12    13 2   
    23    12    23 1   
    24    13    14 1   
    25    14    15 1   
    26    14    17 1   
    27    15    16 2   
    28    17    18 1   
    29    17    22 1   
    30    17    43 1   
    31    18    19 1   
    32    18    44 1   
    33    18    45 1   
    34    19    20 1   
    35    19    46 1   
    36    19    47 1   
    37    20    21 1   
    38    21    22 1   
    39    21    48 1   
    40    21    49 1   
    41    22    50 1   
    42    22    51 1   
    43    23    24 ar  
    44    23    28 ar  
    45    24    25 ar  
    46    24    52 1   
    47    25    26 ar  
    48    25    53 1   
    49    26    27 ar  
    50    27    28 ar  
    51    27    29 1   
    52    28    54 1   
    53    29    30 1   
    54    29    55 1   
    55    30    31 1   
    56    30    35 1   
    57    30    56 1   
    58    31    32 1   
    59    31    57 1   
    60    31    58 1   
    61    32    33 1   
    62    32    59 1   
    63    32    60 1   
    64    33    34 1   
    65    33    61 1   
    66    33    62 1   
    67    34    35 1   
    68    34    63 1   
    69    34    64 1   
    70    35    65 1   
    71    35    66 1   
@<TRIPOS>SUBSTRUCTURE
     1 589         1 TEMP              0 ****  ****    0 ROOT
