@<TRIPOS>MOLECULE
molecule
   49    53     1     0     0
SMALL
bcc


@<TRIPOS>ATOM
      1 C1           0.0000     0.0000     0.0000 ca         1 58C      -0.304600
      2 C2           1.4190     0.0000     0.0000 ca         1 58C       0.475600
      3 C3          -0.6680    -0.0070     1.2380 ca         1 58C       0.512200
      4 C4           1.3820    -0.0010     2.3040 ca         1 58C       0.925900
      5 C5           0.0040     0.0010    -2.3900 ca         1 58C      -0.109000
      6 C6           1.3980     0.0000    -2.3960 ca         1 58C      -0.214000
      7 C7          -0.6930     0.0000    -1.2200 ca         1 58C      -0.124000
      8 C20         -0.4280     1.0220     5.9960 ca         1 58C       0.108400
      9 C21         -1.7740     1.4810     7.6400 cc         1 58C       0.426700
     10 N2           0.0520    -0.0070     2.3400 nb         1 58C      -0.768000
     11 O1           3.4650     0.0010    -1.2510 os         1 58C      -0.295900
     12 N1           2.0620     0.0000     1.1730 nb         1 58C      -0.765000
     13 C8           2.1060     0.0010    -1.2280 ca         1 58C       0.091800
     14 C9           5.4930    -0.7100    -2.3570 c3         1 58C      -0.086400
     15 C10          4.0920    -0.1220    -2.5290 c3         1 58C       0.139100
     16 C11          6.1640    -0.8410    -3.7240 c3         1 58C      -0.087400
     17 C12          6.2680     0.5390    -4.3760 c3         1 58C       0.143100
     18 C13          4.8660     1.1280    -4.5500 c3         1 58C      -0.087400
     19 C14          4.1950     1.2600    -3.1810 c3         1 58C      -0.086400
     20 C15          1.8630    -0.5430     5.8450 ca         1 58C      -0.139000
     21 N3           2.0810    -0.0000     3.4990 nu         1 58C      -0.752300
     22 C16          1.3920     0.1180     4.7120 ca         1 58C       0.139600
     23 C17          1.1950    -0.4340     7.0450 ca         1 58C      -0.114000
     24 C18          0.0510     0.3460     7.1310 ca         1 58C      -0.111200
     25 C19          0.2530     0.8980     4.7820 ca         1 58C      -0.072000
     26 N4          -0.8240     0.6580     8.1560 na         1 58C      -0.271300
     27 N5          -1.5440     1.6950     6.3770 nd         1 58C      -0.603100
     28 O2           7.0470     1.4010    -3.5450 oh         1 58C      -0.600800
     29 H1          -1.7510    -0.0120     1.2830 h4         1 58C       0.037100
     30 H2          -0.5330     0.0000    -3.3310 ha         1 58C       0.130000
     31 H3           1.9270     0.0000    -3.3410 ha         1 58C       0.143000
     32 H4          -1.7760     0.0010    -1.2320 ha         1 58C       0.133000
     33 H6           5.4180    -1.6890    -1.8980 hc         1 58C       0.063450
     34 H7           6.0830    -0.0560    -1.7270 hc         1 58C       0.063450
     35 H8           3.5040    -0.7740    -3.1630 h1         1 58C       0.041700
     36 H9           7.1580    -1.2550    -3.5990 hc         1 58C       0.047950
     37 H10          5.5720    -1.4930    -4.3550 hc         1 58C       0.047950
     38 H11          6.7390     0.4430    -5.3470 h1         1 58C       0.029700
     39 H12          4.9420     2.1060    -5.0100 hc         1 58C       0.047950
     40 H13          4.2760     0.4730    -5.1790 hc         1 58C       0.047950
     41 H14          4.7880     1.9120    -2.5510 hc         1 58C       0.063450
     42 H15          3.2020     1.6740    -3.3060 hc         1 58C       0.063450
     43 H16          2.7610    -1.1460     5.7810 ha         1 58C       0.135000
     44 H17          3.0810    -0.0450     3.4940 hn         1 58C       0.469800
     45 H18          1.5670    -0.9510     7.9220 ha         1 58C       0.127000
     46 H19         -0.1110     1.4100     3.8990 ha         1 58C       0.168000
     47 H20         -0.7680     0.3360     9.1020 hn         1 58C       0.300700
     48 H22          7.8030     1.7000    -4.0230 ho         1 58C       0.400000
     49 H5          -2.6030     1.8990     8.1980 h5         1 58C       0.071800
@<TRIPOS>BOND
     1    26    24 1
     2    26     9 1
     3    23    24 ar
     4    23    20 ar
     5    24     8 ar
     6    20    22 ar
     7     9    27 2
     8     8    27 1
     9     8    25 ar
    10    22    25 ar
    11    22    21 1
    12    21     4 1
    13    28    17 1
    14     4    10 ar
    15     4    12 ar
    16    10     3 ar
    17    12     2 ar
    18    17    18 1
    19    17    16 1
    20     3     1 ar
    21    18    19 1
    22     2     1 ar
    23     2    13 ar
    24    16    14 1
    25     1     7 ar
    26    11    13 1
    27    11    15 1
    28    19    15 1
    29    13     6 ar
    30    15    14 1
    31     7     5 ar
    32     6     5 ar
    33     3    29 1
    34     5    30 1
    35     6    31 1
    36     7    32 1
    37     9    49 1
    38    14    33 1
    39    14    34 1
    40    15    35 1
    41    16    36 1
    42    16    37 1
    43    17    38 1
    44    18    39 1
    45    18    40 1
    46    19    41 1
    47    19    42 1
    48    20    43 1
    49    21    44 1
    50    23    45 1
    51    25    46 1
    52    26    47 1
    53    28    48 1
@<TRIPOS>SUBSTRUCTURE
     1 58C         1 TEMP              0 ****  ****    0 ROOT
