@<TRIPOS>MOLECULE
58C
   49    53     1     0     0
SMALL
bcc


@<TRIPOS>ATOM
      1 C1           0.0000     0.0000     0.0000 ca         1 58C      -0.298600
      2 C2           1.4190     0.0000     0.0000 ca         1 58C       0.427600
      3 C3          -0.6680    -0.0070     1.2380 ca         1 58C       0.494200
      4 C4           1.3820    -0.0010     2.3040 ca         1 58C       0.687900
      5 C5           0.0040     0.0010    -2.3900 ca         1 58C      -0.078000
      6 C6           1.3980     0.0000    -2.3960 ca         1 58C      -0.212000
      7 C7          -0.6930     0.0000    -1.2200 ca         1 58C      -0.095000
      8 C20         -0.4280     1.0220     5.9960 ca         1 58C       0.084400
      9 C21         -1.7740     1.4810     7.6400 cc         1 58C       0.243700
     10 N2           0.0520    -0.0070     2.3400 nb         1 58C      -0.655000
     11 O1           3.4650     0.0010    -1.2510 os         1 58C      -0.268900
     12 N1           2.0620     0.0000     1.1730 nb         1 58C      -0.666000
     13 C8           2.1060     0.0010    -1.2280 ca         1 58C       0.094800
     14 C9           5.4930    -0.7100    -2.3570 c3         1 58C      -0.042900
     15 C10          4.0920    -0.1220    -2.5290 c3         1 58C       0.161100
     16 C11          6.1640    -0.8410    -3.7240 c3         1 58C      -0.034400
     17 C12          6.2680     0.5390    -4.3760 c3         1 58C       0.189100
     18 C13          4.8660     1.1280    -4.5500 c3         1 58C      -0.034400
     19 C14          4.1950     1.2600    -3.1810 c3         1 58C      -0.042900
     20 C15          1.8630    -0.5430     5.8450 ca         1 58C      -0.114000
     21 N3           2.0810    -0.0000     3.4990 nu         1 58C      -0.286300
     22 C16          1.3920     0.1180     4.7120 ca         1 58C      -0.020400
     23 C17          1.1950    -0.4340     7.0450 ca         1 58C      -0.070000
     24 C18          0.0510     0.3460     7.1310 ca         1 58C      -0.290200
     25 C19          0.2530     0.8980     4.7820 ca         1 58C      -0.049000
     26 N4          -0.8240     0.6580     8.1560 na         1 58C       0.254700
     27 N5          -1.5440     1.6950     6.3770 nd         1 58C      -0.522100
     28 O2           7.0470     1.4010    -3.5450 oh         1 58C      -0.579800
     29 H1          -1.7510    -0.0120     1.2830 h4         1 58C      -0.011900
     30 H2          -0.5330     0.0000    -3.3310 ha         1 58C       0.101000
     31 H3           1.9270     0.0000    -3.3410 ha         1 58C       0.129000
     32 H4          -1.7760     0.0010    -1.2320 ha         1 58C       0.108000
     33 H6           5.4180    -1.6890    -1.8980 hc         1 58C       0.033950
     34 H7           6.0830    -0.0560    -1.7270 hc         1 58C       0.033950
     35 H8           3.5040    -0.7740    -3.1630 h1         1 58C       0.018700
     36 H9           7.1580    -1.2550    -3.5990 hc         1 58C       0.018200
     37 H10          5.5720    -1.4930    -4.3550 hc         1 58C       0.018200
     38 H11          6.7390     0.4430    -5.3470 h1         1 58C      -0.005300
     39 H12          4.9420     2.1060    -5.0100 hc         1 58C       0.018200
     40 H13          4.2760     0.4730    -5.1790 hc         1 58C       0.018200
     41 H14          4.7880     1.9120    -2.5510 hc         1 58C       0.033950
     42 H15          3.2020     1.6740    -3.3060 hc         1 58C       0.033950
     43 H16          2.7610    -1.1460     5.7810 ha         1 58C       0.107000
     44 H17          3.0810    -0.0450     3.4940 hn         1 58C       0.294800
     45 H18          1.5670    -0.9510     7.9220 ha         1 58C       0.099000
     46 H19         -0.1110     1.4100     3.8990 ha         1 58C       0.140000
     47 H20         -0.7680     0.3360     9.1020 hn         1 58C       0.125700
     48 H22          7.8030     1.7000    -4.0230 ho         1 58C       0.386000
     49 H5          -2.6030     1.8990     8.1980 h5         1 58C       0.024800
@<TRIPOS>BOND
     1     1     2 ar  
     2     1     3 ar  
     3     1     7 ar  
     4     2    12 ar  
     5     2    13 ar  
     6     3    10 ar  
     7     3    29 1   
     8     4    10 ar  
     9     4    12 ar  
    10     4    21 1   
    11     5     6 ar  
    12     5     7 ar  
    13     5    30 1   
    14     6    13 ar  
    15     6    31 1   
    16     7    32 1   
    17     8    24 ar  
    18     8    25 ar  
    19     8    27 1   
    20     9    26 1   
    21     9    27 2   
    22     9    49 1   
    23    11    13 1   
    24    11    15 1   
    25    14    15 1   
    26    14    16 1   
    27    14    33 1   
    28    14    34 1   
    29    15    19 1   
    30    15    35 1   
    31    16    17 1   
    32    16    36 1   
    33    16    37 1   
    34    17    18 1   
    35    17    28 1   
    36    17    38 1   
    37    18    19 1   
    38    18    39 1   
    39    18    40 1   
    40    19    41 1   
    41    19    42 1   
    42    20    22 ar  
    43    20    23 ar  
    44    20    43 1   
    45    21    22 1   
    46    21    44 1   
    47    22    25 ar  
    48    23    24 ar  
    49    23    45 1   
    50    24    26 1   
    51    25    46 1   
    52    26    47 1   
    53    28    48 1   
@<TRIPOS>SUBSTRUCTURE
     1 58C         1 TEMP              0 ****  ****    0 ROOT
