@<TRIPOS>MOLECULE
molecule
   41    43     1     0     0
SMALL
bcc


@<TRIPOS>ATOM
      1 C4           0.0000     0.0000     0.0000 c          1 58D       0.706100
      2 C7          -0.1600    -1.5490     1.8770 c3         1 58D       0.048700
      3 C8           0.7870    -2.5640     1.2320 c3         1 58D      -0.059100
      4 C10         -0.5190    -4.6720     0.8950 ca         1 58D      -0.083000
      5 C13         -0.9280    -4.0680    -1.7750 ca         1 58D      -0.188000
      6 C15          0.6100    -0.6770     2.8300 c          1 58D       0.689500
      7 C20          4.2490    -0.0250    -0.1470 ca         1 58D      -0.087000
      8 C22         -2.6620    -7.2740    -1.4120 c3         1 58D       0.128700
      9 C12         -1.4510    -5.2360    -1.2410 ca         1 58D       0.143100
     10 C11         -1.2450    -5.5360     0.0980 ca         1 58D      -0.188000
     11 C14         -0.2130    -3.2010    -0.9720 ca         1 58D      -0.083000
     12 C9          -0.0040    -3.5050     0.3610 ca         1 58D      -0.128300
     13 O16          0.2520    -0.6090     3.9870 o          1 58D      -0.626500
     14 N17          1.6710     0.0230     2.4420 ns         1 58D      -0.463100
     15 C18          2.2290     0.0000     1.1680 ca         1 58D       0.079600
     16 C19          3.6240    -0.0060     1.0790 ca         1 58D      -0.169000
     17 C1           3.4900    -0.0140    -1.3160 ca         1 58D      -0.151000
     18 C2           2.1180    -0.0050    -1.2450 ca         1 58D      -0.062000
     19 C3           1.4680     0.0000     0.0000 ca         1 58D      -0.158600
     20 O5          -0.5670     0.6890    -0.8270 o          1 58D      -0.640500
     21 N6          -0.7550    -0.7070     0.8400 n          1 58D      -0.468800
     22 C23         -2.2140    -0.6390     0.7220 c3         1 58D       0.107300
     23 H1          -0.9440    -2.0680     2.4150 h1         1 58D       0.104700
     24 H2           1.2920    -3.1290     2.0070 hc         1 58D       0.067700
     25 H3           1.5200    -2.0430     0.6290 hc         1 58D       0.067700
     26 H4          -0.3580    -4.9060     1.9400 ha         1 58D       0.134500
     27 H5          -1.0920    -3.8280    -2.8190 ha         1 58D       0.141500
     28 H6           5.3310    -0.0320    -0.2030 ha         1 58D       0.139000
     29 H7          -3.3320    -7.0020    -0.6050 h1         1 58D       0.041700
     30 H8          -1.8430    -7.8630    -1.0170 h1         1 58D       0.041700
     31 H9          -3.2020    -7.8570    -2.1480 h1         1 58D       0.041700
     32 H10         -1.6500    -6.4490     0.5170 ha         1 58D       0.141500
     33 H11          0.1950    -2.2880    -1.3890 ha         1 58D       0.134500
     34 H12          2.1040     0.6160     3.1220 hn         1 58D       0.338500
     35 H13          4.2190    -0.0150     1.9840 ha         1 58D       0.140000
     36 H14          3.9830    -0.0280    -2.2810 ha         1 58D       0.141000
     37 H15          1.5330     0.0040    -2.1570 ha         1 58D       0.157000
     38 H16         -2.5020    -0.8170    -0.3070 h1         1 58D       0.049367
     39 H17         -2.5550     0.3430     1.0280 h1         1 58D       0.049367
     40 H18         -2.6630    -1.3910     1.3580 h1         1 58D       0.049367
     41 O21         -2.1540    -6.0910    -2.0290 os         1 58D      -0.327900
@<TRIPOS>BOND
     1    16     7 ar
     2    16    15 ar
     3     7    17 ar
     4    14    15 1
     5    14     6 1
     6    15    19 ar
     7    17    18 ar
     8    13     6 2
     9     6     2 1
    10    19    18 ar
    11    19     1 1
    12     2     3 1
    13     2    21 1
    14     1    21 1
    15     1    20 2
    16     3    12 1
    17    21    22 1
    18    12    11 ar
    19    12     4 ar
    20    11     5 ar
    21     4    10 ar
    22     5     9 ar
    23    10     9 ar
    24     9    41 1
    25    41     8 1
    26     2    23 1
    27     3    24 1
    28     3    25 1
    29     4    26 1
    30     5    27 1
    31     7    28 1
    32     8    29 1
    33     8    30 1
    34     8    31 1
    35    10    32 1
    36    11    33 1
    37    14    34 1
    38    16    35 1
    39    17    36 1
    40    18    37 1
    41    22    38 1
    42    22    39 1
    43    22    40 1
@<TRIPOS>SUBSTRUCTURE
     1 58D         1 TEMP              0 ****  ****    0 ROOT
