@<TRIPOS>MOLECULE
58D
   41    43     1     0     0
SMALL
bcc


@<TRIPOS>ATOM
      1 C4           0.0000     0.0000     0.0000 c          1 58D       0.629100
      2 C7          -0.1600    -1.5490     1.8770 c3         1 58D      -0.039300
      3 C8           0.7870    -2.5640     1.2320 c3         1 58D      -0.013100
      4 C10         -0.5190    -4.6720     0.8950 ca         1 58D      -0.055000
      5 C13         -0.9280    -4.0680    -1.7750 ca         1 58D      -0.172500
      6 C15          0.6100    -0.6770     2.8300 c          1 58D       0.582500
      7 C20          4.2490    -0.0250    -0.1470 ca         1 58D      -0.057000
      8 C22         -2.6620    -7.2740    -1.4120 c3         1 58D       0.244700
      9 C12         -1.4510    -5.2360    -1.2410 ca         1 58D       0.153100
     10 C11         -1.2450    -5.5360     0.0980 ca         1 58D      -0.172500
     11 C14         -0.2130    -3.2010    -0.9720 ca         1 58D      -0.055000
     12 C9          -0.0040    -3.5050     0.3610 ca         1 58D      -0.143300
     13 O16          0.2520    -0.6090     3.9870 o          1 58D      -0.664500
     14 N17          1.6710     0.0230     2.4420 ns         1 58D      -0.014100
     15 C18          2.2290     0.0000     1.1680 ca         1 58D      -0.069400
     16 C19          3.6240    -0.0060     1.0790 ca         1 58D      -0.140000
     17 C1           3.4900    -0.0140    -1.3160 ca         1 58D      -0.120000
     18 C2           2.1180    -0.0050    -1.2450 ca         1 58D      -0.030000
     19 C3           1.4680     0.0000     0.0000 ca         1 58D      -0.152600
     20 O5          -0.5670     0.6890    -0.8270 o          1 58D      -0.682500
     21 N6          -0.7550    -0.7070     0.8400 n          1 58D      -0.118800
     22 C23         -2.2140    -0.6390     0.7220 c3         1 58D       0.090300
     23 H1          -0.9440    -2.0680     2.4150 h1         1 58D       0.075700
     24 H2           1.2920    -3.1290     2.0070 hc         1 58D       0.043200
     25 H3           1.5200    -2.0430     0.6290 hc         1 58D       0.043200
     26 H4          -0.3580    -4.9060     1.9400 ha         1 58D       0.108500
     27 H5          -1.0920    -3.8280    -2.8190 ha         1 58D       0.120500
     28 H6           5.3310    -0.0320    -0.2030 ha         1 58D       0.107000
     29 H7          -3.3320    -7.0020    -0.6050 h1         1 58D      -0.001967
     30 H8          -1.8430    -7.8630    -1.0170 h1         1 58D      -0.001967
     31 H9          -3.2020    -7.8570    -2.1480 h1         1 58D      -0.001967
     32 H10         -1.6500    -6.4490     0.5170 ha         1 58D       0.120500
     33 H11          0.1950    -2.2880    -1.3890 ha         1 58D       0.108500
     34 H12          2.1040     0.6160     3.1220 hn         1 58D       0.181500
     35 H13          4.2190    -0.0150     1.9840 ha         1 58D       0.114000
     36 H14          3.9830    -0.0280    -2.2810 ha         1 58D       0.112000
     37 H15          1.5330     0.0040    -2.1570 ha         1 58D       0.125000
     38 H16         -2.5020    -0.8170    -0.3070 h1         1 58D       0.017033
     39 H17         -2.5550     0.3430     1.0280 h1         1 58D       0.017033
     40 H18         -2.6630    -1.3910     1.3580 h1         1 58D       0.017033
     41 O21         -2.1540    -6.0910    -2.0290 os         1 58D      -0.305900
@<TRIPOS>BOND
     1     1    19 1   
     2     1    20 2   
     3     1    21 1   
     4     2     3 1   
     5     2     6 1   
     6     2    21 1   
     7     2    23 1   
     8     3    12 1   
     9     3    24 1   
    10     3    25 1   
    11     4    10 ar  
    12     4    12 ar  
    13     4    26 1   
    14     5     9 ar  
    15     5    11 ar  
    16     5    27 1   
    17     6    13 2   
    18     6    14 1   
    19     7    16 ar  
    20     7    17 ar  
    21     7    28 1   
    22     8    29 1   
    23     8    30 1   
    24     8    31 1   
    25     8    41 1   
    26     9    10 ar  
    27     9    41 1   
    28    10    32 1   
    29    11    12 ar  
    30    11    33 1   
    31    14    15 1   
    32    14    34 1   
    33    15    16 ar  
    34    15    19 ar  
    35    16    35 1   
    36    17    18 ar  
    37    17    36 1   
    38    18    19 ar  
    39    18    37 1   
    40    21    22 1   
    41    22    38 1   
    42    22    39 1   
    43    22    40 1   
@<TRIPOS>SUBSTRUCTURE
     1 58D         1 TEMP              0 ****  ****    0 ROOT
