@<TRIPOS>MOLECULE
58E
   47    50     1     0     0
SMALL
bcc


@<TRIPOS>ATOM
      1 O16          0.0000     0.0000     0.0000 oh         1 58E      -0.490100
      2 C3           1.3510     0.0000     0.0000 c2         1 58E       0.140900
      3 C4           2.0600     0.0000     1.3240 c3         1 58E      -0.006500
      4 C17          1.3630    -0.9750     2.2750 c3         1 58E       0.000900
      5 C5           3.5160    -0.4310     1.1310 c3         1 58E      -0.047700
      6 C6           4.3010    -0.2230     2.4240 c3         1 58E      -0.041400
      7 C7           5.6780    -0.8880     2.3050 c3         1 58E       0.053900
      8 C8           6.3140    -0.4390     1.0140 cc         1 58E      -0.280600
      9 C13          7.6180    -0.5280     0.6430 cd         1 58E      -0.176300
     10 C20          8.7220    -1.0990     1.4470 ca         1 58E      -0.126300
     11 C25          9.6510    -1.9670     0.8620 ca         1 58E      -0.075000
     12 C24         10.6640    -2.4750     1.6570 ca         1 58E      -0.214300
     13 C23         10.7260    -2.1120     2.9900 ca         1 58E       0.407200
     14 N22          9.8350    -1.2910     3.5140 nb         1 58E      -0.578000
     15 C21          8.8570    -0.7780     2.7970 ca         1 58E       0.414200
     16 N12          7.7200     0.0080    -0.6070 na         1 58E       0.483400
     17 C19          8.9470     0.1230    -1.4010 c3         1 58E       0.020600
     18 N11          6.4420     0.4310    -0.9990 nd         1 58E      -0.624800
     19 C9           5.6060     0.1640    -0.0360 cc         1 58E       0.369600
     20 C10          4.1200     0.4220     0.0050 c3         1 58E      -0.066300
     21 C18          3.8540     1.9030     0.2820 c3         1 58E      -0.014100
     22 C1           3.4810     0.0010    -1.3200 c3         1 58E       0.064800
     23 C2           1.9790    -0.0070    -1.1720 ce         1 58E      -0.086900
     24 C14          1.1810     0.0030    -2.3610 cg         1 58E       0.199500
     25 N15          0.5590     0.0250    -3.3120 n1         1 58E      -0.394800
     26 H1          -0.3140    -0.6990    -0.5490 ho         1 58E       0.415000
     27 H2           2.0350     0.9990     1.7440 hc         1 58E       0.056700
     28 H3           1.8170    -0.9090     3.2570 hc         1 58E       0.011700
     29 H4           0.3120    -0.7220     2.3450 hc         1 58E       0.011700
     30 H5           1.4670    -1.9850     1.8970 hc         1 58E       0.011700
     31 H6           3.5490    -1.4770     0.8510 hc         1 58E       0.042700
     32 H7           3.9110    -0.9170     3.1590 hc         1 58E       0.028200
     33 H8           4.2030     0.8190     2.7020 hc         1 58E       0.028200
     34 H9           6.3670    -0.2780     2.8770 hc         1 58E       0.031700
     35 H10          5.5710    -1.8940     2.6920 hc         1 58E       0.031700
     36 H11          9.5870    -2.1990    -0.1940 ha         1 58E       0.114000
     37 H12         11.3990    -3.1490     1.2330 ha         1 58E       0.115000
     38 H13         11.5140    -2.5030     3.6220 h4         1 58E      -0.017900
     39 H14          8.1700    -0.0780     3.2590 h4         1 58E      -0.005900
     40 H15          9.1760    -0.8350    -1.8520 h1         1 58E       0.023367
     41 H16          8.8070     0.8640    -2.1780 h1         1 58E       0.023367
     42 H17          9.7660     0.4240    -0.7580 h1         1 58E       0.023367
     43 H18          3.1270     2.2780    -0.4280 hc         1 58E       0.018033
     44 H19          4.7770     2.4610     0.1830 hc         1 58E       0.018033
     45 H20          3.4680     2.0190     1.2880 hc         1 58E       0.018033
     46 H21          3.7950    -1.0090    -1.5520 hc         1 58E       0.035700
     47 H22          3.8280     0.6680    -2.1010 hc         1 58E       0.035700
@<TRIPOS>BOND
     1     1     2 1   
     2     1    26 1   
     3     2     3 1   
     4     2    23 2   
     5     3     4 1   
     6     3     5 1   
     7     3    27 1   
     8     4    28 1   
     9     4    29 1   
    10     4    30 1   
    11     5     6 1   
    12     5    20 1   
    13     5    31 1   
    14     6     7 1   
    15     6    32 1   
    16     6    33 1   
    17     7     8 1   
    18     7    34 1   
    19     7    35 1   
    20     8     9 2   
    21     8    19 1   
    22     9    10 1   
    23     9    16 1   
    24    10    11 ar  
    25    10    15 ar  
    26    11    12 ar  
    27    11    36 1   
    28    12    13 ar  
    29    12    37 1   
    30    13    14 ar  
    31    13    38 1   
    32    14    15 ar  
    33    15    39 1   
    34    16    17 1   
    35    16    18 1   
    36    17    40 1   
    37    17    41 1   
    38    17    42 1   
    39    18    19 2   
    40    19    20 1   
    41    20    21 1   
    42    20    22 1   
    43    21    43 1   
    44    21    44 1   
    45    21    45 1   
    46    22    23 1   
    47    22    46 1   
    48    22    47 1   
    49    23    24 1   
    50    24    25 3   
@<TRIPOS>SUBSTRUCTURE
     1 58E         1 TEMP              0 ****  ****    0 ROOT
