@<TRIPOS>MOLECULE
molecule
   55    60     1     0     0
SMALL
bcc


@<TRIPOS>ATOM
      1 C            0.0000     0.0000     0.0000 ca         1 58F       0.063900
      2 C1           1.3780     0.0000     2.4020 ca         1 58F      -0.090900
      3 C2           1.3840     0.0000     0.0000 ca         1 58F      -0.099500
      4 C3           2.0770     0.0000     1.1940 ca         1 58F      -0.102500
      5 C4          -0.6980     0.0060     1.1950 ca         1 58F      -0.099500
      6 C5          -0.0180     0.0070     2.3940 ca         1 58F      -0.102500
      7 C6           2.1140     0.0000     3.6840 cc         1 58F       0.476400
      8 C7           3.7590    -0.0030     5.1640 ca         1 58F      -0.097200
      9 C8           2.5160     0.0080     5.8230 ca         1 58F       0.105400
     10 C9           2.4740     0.0140     7.2230 ca         1 58F      -0.070000
     11 C10          3.6320     0.0080     7.9410 ca         1 58F      -0.137000
     12 C11          4.8720    -0.0020     7.2900 ca         1 58F      -0.091900
     13 C12          4.9320    -0.0090     5.8990 ca         1 58F      -0.077000
     14 N1           3.4770    -0.0060     3.8100 na         1 58F      -0.253300
     15 N2           1.5600     0.0120     4.8720 nd         1 58F      -0.596100
     16 C13          6.1200    -0.0070     8.0820 cd         1 58F       0.472400
     17 C14          7.5230    -0.0110     9.7960 ca         1 58F      -0.065200
     18 C15          8.2410    -0.0240     8.5860 ca         1 58F       0.071400
     19 C16          9.6390    -0.0350     8.6140 ca         1 58F      -0.047000
     20 C17         10.2990    -0.0330     9.8100 ca         1 58F      -0.192000
     21 C18          9.5900    -0.0190    11.0100 ca         1 58F       0.119600
     22 N3           6.1850    -0.0030     9.4510 na         1 58F      -0.261300
     23 N4           7.3310    -0.0230     7.5800 nc         1 58F      -0.595100
     24 C19          8.2040    -0.0100    11.0040 ca         1 58F      -0.161000
     25 N5          10.2800    -0.0170    12.2250 nh         1 58F      -0.589000
     26 N6          12.0570     1.0410    14.1830 n3         1 58F      -0.721600
     27 C20          9.8860     1.1310    13.0530 c3         1 58F       0.121300
     28 C21         10.6030     1.0540    14.4020 c3         1 58F       0.160300
     29 C22         12.4510    -0.1080    13.3550 c3         1 58F       0.160300
     30 C23         11.7340    -0.0300    12.0050 c3         1 58F       0.121300
     31 C24         12.5090     2.3030    13.5830 c3         1 58F       0.141100
     32 I           -1.0430    -0.0000    -1.8180 i          1 58F      -0.160900
     33 H1           1.9250    -0.0020    -0.9390 ha         1 58F       0.147500
     34 H2           3.1600    -0.0030     1.1930 ha         1 58F       0.147500
     35 H3          -1.7810     0.0080     1.1880 ha         1 58F       0.147500
     36 H4          -0.5650     0.0090     3.3290 ha         1 58F       0.147500
     37 H5           1.5200     0.0220     7.7360 ha         1 58F       0.146000
     38 H6           3.5930     0.0130     9.0230 ha         1 58F       0.126000
     39 H7           5.8910    -0.0170     5.3940 ha         1 58F       0.158000
     40 H8           4.1350    -0.1570     3.0720 hn         1 58F       0.307700
     41 H10         10.2000    -0.0460     7.6870 ha         1 58F       0.142000
     42 H11         11.3820    -0.0390     9.8260 ha         1 58F       0.140000
     43 H12          5.4150    -0.1350    10.0770 hn         1 58F       0.304700
     44 H14          7.6560     0.0010    11.9390 ha         1 58F       0.135000
     45 H16          8.8150     1.1090    13.2130 h1         1 58F       0.047450
     46 H17         10.1630     2.0500    12.5500 h1         1 58F       0.047450
     47 H18         10.3080     0.1470    14.9160 h1         1 58F       0.063950
     48 H19         10.3380     1.9170    15.0010 h1         1 58F       0.063950
     49 H20         13.5220    -0.0860    13.1950 h1         1 58F       0.063950
     50 H21         12.1740    -1.0260    13.8570 h1         1 58F       0.063950
     51 H22         12.0000    -0.8920    11.4060 h1         1 58F       0.047450
     52 H23         12.0280     0.8780    11.4930 h1         1 58F       0.047450
     53 H24         13.5680     2.2390    13.3630 h1         1 58F       0.034700
     54 H25         12.3330     3.1160    14.2760 h1         1 58F       0.034700
     55 H26         11.9600     2.4840    12.6670 h1         1 58F       0.034700
@<TRIPOS>BOND
     1    31    26 1   
     2    28    26 1   
     3    28    27 1   
     4    26    29 1   
     5    27    25 1   
     6    29    30 1   
     7    25    30 1   
     8    25    21 1   
     9    20    21 ar  
    10    20    19 ar  
    11    21    24 ar  
    12    19    18 ar  
    13    24    17 ar  
    14    18    17 ar  
    15    18    23 1   
    16    17    22 1   
    17    23    16 2   
    18    22    16 1   
    19    16    12 1   
    20    12    11 ar  
    21    12    13 ar  
    22    11    10 ar  
    23    13     8 ar  
    24    10     9 ar  
    25     8     9 ar  
    26     8    14 1   
    27     9    15 1   
    28    14     7 1   
    29    15     7 2   
    30     7     2 1   
    31     2     6 ar  
    32     2     4 ar  
    33     6     5 ar  
    34     4     3 ar  
    35     5     1 ar  
    36     3     1 ar  
    37     1    32 1   
    38     3    33 1   
    39     4    34 1   
    40     5    35 1   
    41     6    36 1   
    42    10    37 1   
    43    11    38 1   
    44    13    39 1   
    45    14    40 1   
    46    19    41 1   
    47    20    42 1   
    48    22    43 1   
    49    24    44 1   
    50    27    45 1   
    51    27    46 1   
    52    28    47 1   
    53    28    48 1   
    54    29    49 1   
    55    29    50 1   
    56    30    51 1   
    57    30    52 1   
    58    31    53 1   
    59    31    54 1   
    60    31    55 1   
@<TRIPOS>SUBSTRUCTURE
     1 58F         1 TEMP              0 ****  ****    0 ROOT
