@<TRIPOS>MOLECULE
58F
   55    60     1     0     0
SMALL
bcc


@<TRIPOS>ATOM
      1 C            0.0000     0.0000     0.0000 ca         1 58F       0.204900
      2 C1           1.3780     0.0000     2.4020 ca         1 58F      -0.098900
      3 C2           1.3840     0.0000     0.0000 ca         1 58F      -0.083000
      4 C3           2.0770     0.0000     1.1940 ca         1 58F      -0.077500
      5 C4          -0.6980     0.0060     1.1950 ca         1 58F      -0.083000
      6 C5          -0.0180     0.0070     2.3940 ca         1 58F      -0.077500
      7 C6           2.1140     0.0000     3.6840 cc         1 58F       0.266400
      8 C7           3.7590    -0.0030     5.1640 ca         1 58F      -0.278200
      9 C8           2.5160     0.0080     5.8230 ca         1 58F       0.071400
     10 C9           2.4740     0.0140     7.2230 ca         1 58F      -0.035000
     11 C10          3.6320     0.0080     7.9410 ca         1 58F      -0.123000
     12 C11          4.8720    -0.0020     7.2900 ca         1 58F      -0.095900
     13 C12          4.9320    -0.0090     5.8990 ca         1 58F      -0.039000
     14 N1           3.4770    -0.0060     3.8100 na         1 58F       0.276700
     15 N2           1.5600     0.0120     4.8720 nd         1 58F      -0.509100
     16 C13          6.1200    -0.0070     8.0820 cc         1 58F       0.268400
     17 C14          7.5230    -0.0110     9.7960 ca         1 58F      -0.246200
     18 C15          8.2410    -0.0240     8.5860 ca         1 58F       0.044400
     19 C16          9.6390    -0.0350     8.6140 ca         1 58F      -0.011000
     20 C17         10.2990    -0.0330     9.8100 ca         1 58F      -0.178000
     21 C18          9.5900    -0.0190    11.0100 ca         1 58F       0.031600
     22 N3           6.1850    -0.0030     9.4510 na         1 58F       0.263700
     23 N4           7.3310    -0.0230     7.5800 nd         1 58F      -0.514100
     24 C19          8.2040    -0.0100    11.0040 ca         1 58F      -0.123000
     25 N5          10.2800    -0.0170    12.2250 nh         1 58F      -0.352000
     26 N6          12.0570     1.0410    14.1830 n3         1 58F      -0.542600
     27 C20          9.8860     1.1310    13.0530 c3         1 58F       0.091300
     28 C21         10.6030     1.0540    14.4020 c3         1 58F       0.155800
     29 C22         12.4510    -0.1080    13.3550 c3         1 58F       0.155800
     30 C23         11.7340    -0.0300    12.0050 c3         1 58F       0.091300
     31 C24         12.5090     2.3030    13.5830 c3         1 58F       0.167100
     32 I           -1.0430    -0.0000    -1.8180 i          1 58F      -0.286900
     33 H1           1.9250    -0.0020    -0.9390 ha         1 58F       0.120000
     34 H2           3.1600    -0.0030     1.1930 ha         1 58F       0.117000
     35 H3          -1.7810     0.0080     1.1880 ha         1 58F       0.120000
     36 H4          -0.5650     0.0090     3.3290 ha         1 58F       0.117000
     37 H5           1.5200     0.0220     7.7360 ha         1 58F       0.112000
     38 H6           3.5930     0.0130     9.0230 ha         1 58F       0.098000
     39 H7           5.8910    -0.0170     5.3940 ha         1 58F       0.127000
     40 H8           4.1350    -0.1570     3.0720 hn         1 58F       0.132700
     41 H10         10.2000    -0.0460     7.6870 ha         1 58F       0.108000
     42 H11         11.3820    -0.0390     9.8260 ha         1 58F       0.124000
     43 H12          5.4150    -0.1350    10.0770 hn         1 58F       0.131700
     44 H14          7.6560     0.0010    11.9390 ha         1 58F       0.113000
     45 H16          8.8150     1.1090    13.2130 h1         1 58F       0.026950
     46 H17         10.1630     2.0500    12.5500 h1         1 58F       0.026950
     47 H18         10.3080     0.1470    14.9160 h1         1 58F       0.030200
     48 H19         10.3380     1.9170    15.0010 h1         1 58F       0.030200
     49 H20         13.5220    -0.0860    13.1950 h1         1 58F       0.030200
     50 H21         12.1740    -1.0260    13.8570 h1         1 58F       0.030200
     51 H22         12.0000    -0.8920    11.4060 h1         1 58F       0.026950
     52 H23         12.0280     0.8780    11.4930 h1         1 58F       0.026950
     53 H24         13.5680     2.2390    13.3630 h1         1 58F       0.005700
     54 H25         12.3330     3.1160    14.2760 h1         1 58F       0.005700
     55 H26         11.9600     2.4840    12.6670 h1         1 58F       0.005700
@<TRIPOS>BOND
     1     1     3 ar  
     2     1     5 ar  
     3     1    32 1   
     4     2     4 ar  
     5     2     6 ar  
     6     2     7 1   
     7     3     4 ar  
     8     3    33 1   
     9     4    34 1   
    10     5     6 ar  
    11     5    35 1   
    12     6    36 1   
    13     7    14 1   
    14     7    15 2   
    15     8     9 ar  
    16     8    13 ar  
    17     8    14 1   
    18     9    10 ar  
    19     9    15 1   
    20    10    11 ar  
    21    10    37 1   
    22    11    12 ar  
    23    11    38 1   
    24    12    13 ar  
    25    12    16 1   
    26    13    39 1   
    27    14    40 1   
    28    16    22 1   
    29    16    23 2   
    30    17    18 ar  
    31    17    22 1   
    32    17    24 ar  
    33    18    19 ar  
    34    18    23 1   
    35    19    20 ar  
    36    19    41 1   
    37    20    21 ar  
    38    20    42 1   
    39    21    24 ar  
    40    21    25 1   
    41    22    43 1   
    42    24    44 1   
    43    25    27 1   
    44    25    30 1   
    45    26    28 1   
    46    26    29 1   
    47    26    31 1   
    48    27    28 1   
    49    27    45 1   
    50    27    46 1   
    51    28    47 1   
    52    28    48 1   
    53    29    30 1   
    54    29    49 1   
    55    29    50 1   
    56    30    51 1   
    57    30    52 1   
    58    31    53 1   
    59    31    54 1   
    60    31    55 1   
@<TRIPOS>SUBSTRUCTURE
     1 58F         1 TEMP              0 ****  ****    0 ROOT
