@<TRIPOS>MOLECULE
58G
   41    43     1     0     0
SMALL
bcc


@<TRIPOS>ATOM
      1 C17          0.0000     0.0000     0.0000 ca         1 58G      -0.090000
      2 C16          1.3820     0.0000     0.0000 ca         1 58G      -0.091000
      3 C18         -0.6900     0.0050     1.1980 ca         1 58G      -0.091000
      4 C5           7.1480     1.1320     7.6840 ca         1 58G       0.086000
      5 C15          2.0740     0.0000     1.1960 ca         1 58G      -0.098000
      6 C19          0.0010     0.0110     2.3950 ca         1 58G      -0.098000
      7 C6           6.1620     0.9880     6.7450 ca         1 58G      -0.271300
      8 C21          8.7160     1.4360     5.8770 ca         1 58G       0.497200
      9 C4           8.4610     1.3650     7.2470 ca         1 58G      -0.454900
     10 C14          1.3830    -0.0020     2.3940 ca         1 58G      -0.099300
     11 C7           6.4890     1.0710     5.3930 ca         1 58G       0.551200
     12 C11          3.0550    -1.2370     3.8080 c3         1 58G      -0.023400
     13 C10          4.1520    -0.8110     4.8050 c3         1 58G      -0.051400
     14 C13          3.1460     1.1790     3.7440 c3         1 58G      -0.053400
     15 C12          2.1370     0.0050     3.6980 c3         1 58G       0.017600
     16 C9           4.2100     0.7260     4.7640 c3         1 58G       0.025500
     17 N20          7.7390     1.2870     5.0050 nb         1 58G      -0.637000
     18 N1          10.8130     1.7580     7.7890 nz         1 58G       0.129600
     19 N8           5.5390     1.1670     4.3340 nu         1 58G      -0.376900
     20 O3           9.3240     1.4700     9.4120 o          1 58G      -0.465100
     21 H1          -0.5420    -0.0020    -0.9380 ha         1 58G       0.109000
     22 H2           1.9240    -0.0010    -0.9380 ha         1 58G       0.107500
     23 H3          -1.7730     0.0100     1.1980 ha         1 58G       0.107500
     24 H4           6.9190     1.0710     8.7410 ha         1 58G       0.135000
     25 H5           3.1580    -0.0050     1.1960 ha         1 58G       0.104000
     26 H6          -0.5400     0.0130     3.3330 ha         1 58G       0.104000
     27 H7           5.1380     0.8090     7.0500 ha         1 58G       0.149000
     28 H8           9.7250     1.6140     5.5270 h4         1 58G      -0.051900
     29 H9           2.5010    -2.0830     4.1970 hc         1 58G       0.031200
     30 H10          3.4910    -1.4710     2.8450 hc         1 58G       0.031200
     31 H11          5.1070    -1.2250     4.5040 hc         1 58G       0.021700
     32 H12          3.8950    -1.1450     5.8030 hc         1 58G       0.021700
     33 H13          3.5960     1.3280     2.7700 hc         1 58G       0.031700
     34 H14          2.6570     2.0840     4.0850 hc         1 58G       0.031700
     35 H15          1.4580     0.0530     4.5410 hc         1 58G       0.038700
     36 H16          3.4730     1.0040     5.5080 h1         1 58G       0.105700
     37 H17         10.4200     2.6240     7.4790 hn         1 58G       0.272133
     38 H18         11.2980     1.8100     8.6630 hn         1 58G       0.272133
     39 H19          5.8520     1.2600     3.3880 hn         1 58G       0.327800
     40 H131        11.1520     1.1680     7.0550 hn         1 58G       0.272133
     41 C2           9.5550     1.5330     8.2210 c          1 58G       0.372700
@<TRIPOS>BOND
     1     1     2 ar  
     2     1     3 ar  
     3     1    21 1   
     4     2     5 ar  
     5     2    22 1   
     6     3     6 ar  
     7     3    23 1   
     8     4     7 ar  
     9     4     9 ar  
    10     4    24 1   
    11     5    10 ar  
    12     5    25 1   
    13     6    10 ar  
    14     6    26 1   
    15     7    11 ar  
    16     7    27 1   
    17     8     9 ar  
    18     8    17 ar  
    19     8    28 1   
    20     9    41 1   
    21    10    15 1   
    22    11    17 ar  
    23    11    19 1   
    24    12    13 1   
    25    12    15 1   
    26    12    29 1   
    27    12    30 1   
    28    13    16 1   
    29    13    31 1   
    30    13    32 1   
    31    14    15 1   
    32    14    16 1   
    33    14    33 1   
    34    14    34 1   
    35    15    35 1   
    36    16    19 1   
    37    16    36 1   
    38    18    37 1   
    39    18    38 1   
    40    18    40 1   
    41    18    41 1   
    42    19    39 1   
    43    20    41 2   
@<TRIPOS>SUBSTRUCTURE
     1 58G         1 TEMP              0 ****  ****    0 ROOT
