@<TRIPOS>MOLECULE
molecule
   63    66     1     0     0
SMALL
bcc


@<TRIPOS>ATOM
      1 C14          1.5580    -1.2480    -2.1090 c1         1 58H       0.240900
      2 C11          0.0000     0.0000     0.0000 c3         1 58H      -0.570900
      3 Cl3         -6.6170    -0.0090     3.2430 cl         1 58H      -0.124400
      4 C01         -2.5410     1.8220     7.6140 c3         1 58H       0.138700
      5 O02         -2.0190     0.9060     6.6440 os         1 58H      -0.421900
      6 C04         -2.3840     1.1560     4.2440 ce         1 58H      -0.273400
      7 C05         -2.0300     1.9630     3.2260 c2         1 58H       0.125800
      8 C06         -0.5740     2.2540     2.9610 c3         1 58H       0.114000
      9 N07          0.0010     1.1730     2.1500 n3         1 58H      -0.406600
     10 C08          1.4700     1.2200     2.1780 c3         1 58H      -0.351200
     11 C09          2.0330     0.0000     1.4470 c3         1 58H      -0.570900
     12 C10          1.5300     0.0000     0.0000 c3         1 58H      -0.023700
     13 C12         -0.5050     1.2210     0.7730 c3         1 58H      -0.351200
     14 C13          2.0420    -1.2500    -0.7190 c3         1 58H      -0.341000
     15 C15          1.1880    -1.2330    -3.2230 c1         1 58H      -0.433000
     16 O16          1.5600    -2.4160    -0.0480 oh         1 58H       0.305200
     17 C17          1.2810    -2.7590    -0.1880 c1         1 58H       0.240900
     18 C18          0.9410    -3.6280     0.0560 c1         1 58H      -0.433000
     19 N19         -2.9990     2.5180     2.4320 nu         1 58H      -0.719000
     20 C20         -4.3070     2.5470     2.8710 ce         1 58H       0.545200
     21 C21         -5.1840     3.2250     1.7830 ca         1 58H       0.471000
     22 C22         -6.0750     4.5770     2.1680 ca         1 58H      -0.233300
     23 C23         -6.6480     4.9620     1.3300 ca         1 58H      -0.079000
     24 C24         -6.9700     4.7960    -0.0010 ca         1 58H      -0.235300
     25 C25         -6.0230     3.4180    -0.2780 ca         1 58H       0.366200
     26 N26         -5.2940     2.9110     0.7500 nb         1 58H      -0.683000
     27 N27         -4.7090     1.7850     3.8350 n2         1 58H      -0.613900
     28 C28         -3.8270     0.8390     4.5120 c3         1 58H       0.232000
     29 C29         -4.1260    -0.5560     4.0270 ca         1 58H      -0.078300
     30 C30         -5.0200    -0.9050     3.5120 ca         1 58H       0.128400
     31 C32         -5.0610    -2.5260     3.0950 ca         1 58H      -0.182000
     32 C33         -4.2620    -3.0190     2.8520 ca         1 58H       0.245900
     33 C35         -2.8450    -2.5350     2.7750 ca         1 58H      -0.200000
     34 C36         -2.7020    -1.1740     3.8350 ca         1 58H      -0.129000
     35 O37         -0.2800     1.5290     5.2510 o          1 58H      -0.486000
     36 F34         -4.1750    -4.5050     2.1940 f          1 58H      -0.244900
     37 H1          -0.4340     0.8910     0.4370 hc         1 58H       0.234950
     38 H2          -0.5920    -0.3060    -0.8540 hc         1 58H       0.234950
     39 H3          -3.2020     1.5040     8.4120 h1         1 58H       0.036700
     40 H4          -3.2580     2.5070     7.1790 h1         1 58H       0.036700
     41 H5          -1.8430     2.4870     8.1090 h1         1 58H       0.036700
     42 H6          -0.4490     2.4850     1.9100 h1         1 58H       0.162200
     43 H7          -0.5350     3.3280     3.0990 h1         1 58H       0.162200
     44 H9           2.0440     0.4310     1.7080 h1         1 58H       0.216950
     45 H10          1.8520     1.4020     3.1750 h1         1 58H       0.216950
     46 H11          1.6190    -0.4240     0.5400 hc         1 58H       0.234950
     47 H12          3.1020    -0.1100     1.5810 hc         1 58H       0.234950
     48 H13          1.8900     0.8880    -0.5060 hc         1 58H       0.124700
     49 H14         -1.5420     1.4900     0.6100 h1         1 58H       0.216950
     50 H15          0.0170     0.8890     1.6620 h1         1 58H       0.216950
     51 H16          0.8530    -1.0850    -4.2430 ha         1 58H       0.169000
     52 H17          0.8710    -2.0620     0.4890 ho         1 58H       0.089000
     53 H18          0.2800    -4.3120     0.5740 ha         1 58H       0.169000
     54 H19         -5.8120     4.7510     3.2040 ha         1 58H       0.159000
     55 H20         -7.0910     5.8860     1.6810 ha         1 58H       0.083000
     56 H21         -7.4410     5.1040    -0.9260 ha         1 58H       0.203000
     57 H22         -6.0600     3.4330    -1.3610 h4         1 58H       0.049100
     58 H23         -5.9120    -2.5660     2.4240 ha         1 58H       0.177000
     59 H24         -1.7860    -2.7610     2.7400 ha         1 58H       0.186000
     60 H25         -1.7230    -0.8530     4.1700 ha         1 58H       0.194000
     61 H8          -2.6270     3.1680     1.7680 hn         1 58H       0.441800
     62 H26         -4.0070     0.8930     5.5790 h1         1 58H       0.100700
     63 C03         -1.5140     1.3620     5.4410 c          1 58H       0.643300
@<TRIPOS>BOND
     1    18    17 3
     2    15     1 3
     3    17    14 1
     4     1    14 1
     5    35    63 2
     6    14    12 1
     7    14    16 1
     8    26    25 ar
     9    26    21 ar
    10     8     7 1
    11     8     9 1
    12    19     7 1
    13    19    20 1
    14    12    11 1
    15    12     2 1
    16     7     6 2
    17    25    24 ar
    18    20    27 2
    19    20    21 1
    20     6    63 1
    21     6    28 1
    22    27    28 1
    23    63     5 1
    24    28    29 1
    25    21    22 ar
    26    11    10 1
    27    24    23 ar
    28    22    23 ar
    29     2    13 1
    30     9    10 1
    31     9    13 1
    32     5     4 1
    33    34    29 ar
    34    34    33 ar
    35    29    30 ar
    36    33    32 ar
    37    30     3 1
    38    30    31 ar
    39    32    31 ar
    40    32    36 1
    41     2    37 1
    42     2    38 1
    43     4    39 1
    44     4    40 1
    45     4    41 1
    46     8    42 1
    47     8    43 1
    48    10    44 1
    49    10    45 1
    50    11    46 1
    51    11    47 1
    52    12    48 1
    53    13    49 1
    54    13    50 1
    55    15    51 1
    56    16    52 1
    57    18    53 1
    58    22    54 1
    59    23    55 1
    60    24    56 1
    61    25    57 1
    62    31    58 1
    63    33    59 1
    64    34    60 1
    65    19    61 1
    66    28    62 1
@<TRIPOS>SUBSTRUCTURE
     1 58H         1 TEMP              0 ****  ****    0 ROOT
