@<TRIPOS>MOLECULE
58J
   39    41     1     0     0
SMALL
bcc


@<TRIPOS>ATOM
      1 C4           0.0000     0.0000     0.0000 c          1 58J       0.620100
      2 C7          -0.1590    -1.4420    -1.8800 cc         1 58J      -0.215600
      3 C8          -0.3270    -2.7800    -1.9890 cf         1 58J       0.008800
      4 C10         -1.7020    -4.7010    -1.2150 ca         1 58J      -0.048000
      5 C13         -1.5860    -3.7650     1.4010 ca         1 58J      -0.178500
      6 C15          0.6560    -0.6910    -2.8490 c          1 58J       0.617700
      7 C20          4.2490    -0.0230     0.1790 ca         1 58J      -0.056000
      8 C22         -3.5790    -6.8240     1.7170 c3         1 58J       0.243700
      9 O16          0.3620    -0.7150    -4.0300 o          1 58J      -0.663500
     10 N17          1.7110     0.0150    -2.4450 ns         1 58J      -0.018100
     11 C18          2.2410    -0.0040    -1.1600 ca         1 58J      -0.060400
     12 C3           1.4670     0.0000     0.0000 ca         1 58J      -0.155600
     13 C19          3.6360    -0.0100    -1.0540 ca         1 58J      -0.142000
     14 C1           3.4780    -0.0080     1.3380 ca         1 58J      -0.123000
     15 C2           2.1070     0.0000     1.2520 ca         1 58J      -0.026000
     16 N6          -0.7560    -0.7140    -0.8380 n          1 58J       0.006000
     17 C23         -2.2100    -0.7390    -0.6690 c3         1 58J       0.068300
     18 O5          -0.5670     0.6930     0.8220 o          1 58J      -0.678500
     19 C9          -1.0030    -3.5260    -0.9190 ca         1 58J      -0.135800
     20 C14         -0.9510    -3.0630     0.4010 ca         1 58J      -0.048000
     21 C12         -2.2730    -4.9350     1.1020 ca         1 58J       0.166100
     22 O21         -2.8900    -5.6300     2.0930 os         1 58J      -0.304900
     23 C11         -2.3340    -5.3970    -0.2070 ca         1 58J      -0.178500
     24 H1           0.1440    -3.3180    -2.8030 ha         1 58J       0.121000
     25 H2          -1.7500    -5.0620    -2.2350 ha         1 58J       0.116500
     26 H3          -1.5460    -3.4070     2.4230 ha         1 58J       0.123000
     27 H4           5.3300    -0.0290     0.2460 ha         1 58J       0.106000
     28 H5          -4.3590    -6.5820     1.0050 h1         1 58J      -0.000967
     29 H6          -4.0210    -7.2770     2.5960 h1         1 58J      -0.000967
     30 H7          -2.8800    -7.5170     1.2660 h1         1 58J      -0.000967
     31 H8           2.1570     0.6050    -3.1190 hn         1 58J       0.180500
     32 H9           4.2410    -0.0220    -1.9530 ha         1 58J       0.113000
     33 H10          3.9600    -0.0180     2.3080 ha         1 58J       0.110000
     34 H11          1.5130     0.0120     2.1580 ha         1 58J       0.123000
     35 H12         -2.6110     0.2520    -0.8460 h1         1 58J       0.023700
     36 H13         -2.4510    -1.0510     0.3400 h1         1 58J       0.023700
     37 H14         -2.6440    -1.4350    -1.3760 h1         1 58J       0.023700
     38 H15         -0.4150    -2.1510     0.6350 ha         1 58J       0.116500
     39 H16         -2.8740    -6.3080    -0.4350 ha         1 58J       0.123000
@<TRIPOS>BOND
     1     1    12 1   
     2     1    16 1   
     3     1    18 2   
     4     2     3 2   
     5     2     6 1   
     6     2    16 1   
     7     3    19 1   
     8     3    24 1   
     9     4    19 ar  
    10     4    23 ar  
    11     4    25 1   
    12     5    20 ar  
    13     5    21 ar  
    14     5    26 1   
    15     6     9 2   
    16     6    10 1   
    17     7    13 ar  
    18     7    14 ar  
    19     7    27 1   
    20     8    22 1   
    21     8    28 1   
    22     8    29 1   
    23     8    30 1   
    24    10    11 1   
    25    10    31 1   
    26    11    12 ar  
    27    11    13 ar  
    28    12    15 ar  
    29    13    32 1   
    30    14    15 ar  
    31    14    33 1   
    32    15    34 1   
    33    16    17 1   
    34    17    35 1   
    35    17    36 1   
    36    17    37 1   
    37    19    20 ar  
    38    20    38 1   
    39    21    22 1   
    40    21    23 ar  
    41    23    39 1   
@<TRIPOS>SUBSTRUCTURE
     1 58J         1 TEMP              0 ****  ****    0 ROOT
