@<TRIPOS>MOLECULE
molecule
   37    39     1     0     0
SMALL
bcc


@<TRIPOS>ATOM
      1 C4           0.0000     0.0000     0.0000 c          1 58K       0.707100
      2 C7          -0.1600    -1.5470     1.8790 c3         1 58K       0.049700
      3 C8           0.7850    -2.5630     1.2360 c3         1 58K      -0.065100
      4 C10         -0.5230    -4.6700     0.9010 ca         1 58K      -0.120000
      5 C13         -0.9320    -4.0730    -1.7670 ca         1 58K      -0.126000
      6 C15          0.6100    -0.6730     2.8310 c          1 58K       0.688500
      7 C20          4.2490    -0.0270    -0.1470 ca         1 58K      -0.087000
      8 C12         -1.4530    -5.2360    -1.2320 ca         1 58K      -0.127000
      9 C11         -1.2480    -5.5350     0.1030 ca         1 58K      -0.126000
     10 C14         -0.2160    -3.2040    -0.9660 ca         1 58K      -0.120000
     11 C9          -0.0060    -3.5040     0.3670 ca         1 58K      -0.087300
     12 O16          0.2520    -0.6040     3.9890 o          1 58K      -0.625500
     13 N17          1.6720     0.0260     2.4420 ns         1 58K      -0.463100
     14 C18          2.2290     0.0000     1.1680 ca         1 58K       0.079600
     15 C19          3.6230    -0.0070     1.0790 ca         1 58K      -0.169000
     16 C1           3.4900    -0.0180    -1.3160 ca         1 58K      -0.151000
     17 C2           2.1170    -0.0080    -1.2450 ca         1 58K      -0.061000
     18 C3           1.4670     0.0000     0.0000 ca         1 58K      -0.158600
     19 O5          -0.5660     0.6880    -0.8280 o          1 58K      -0.640500
     20 N6          -0.7550    -0.7050     0.8410 n          1 58K      -0.468800
     21 C23         -2.2140    -0.6350     0.7240 c3         1 58K       0.107300
     22 H1          -0.9450    -2.0640     2.4190 h1         1 58K       0.105700
     23 H2           1.5180    -2.0420     0.6320 hc         1 58K       0.069700
     24 H3           1.2910    -3.1260     2.0110 hc         1 58K       0.069700
     25 H5          -1.0930    -3.8380    -2.8120 ha         1 58K       0.131500
     26 H6           5.3310    -0.0350    -0.2030 ha         1 58K       0.139000
     27 H7          -2.0180    -5.9150    -1.8590 ha         1 58K       0.131000
     28 H8          -1.6550    -6.4470     0.5220 ha         1 58K       0.131500
     29 H9           0.1930    -2.2920    -1.3870 ha         1 58K       0.132000
     30 H10          2.1060     0.6200     3.1210 hn         1 58K       0.339500
     31 H11          4.2190    -0.0140     1.9840 ha         1 58K       0.140000
     32 H12          3.9820    -0.0340    -2.2810 ha         1 58K       0.141000
     33 H13          1.5320    -0.0000    -2.1560 ha         1 58K       0.156000
     34 H14         -2.5540     0.3480     1.0280 h1         1 58K       0.049033
     35 H15         -2.6640    -1.3860     1.3630 h1         1 58K       0.049033
     36 H16         -2.5030    -0.8150    -0.3040 h1         1 58K       0.049033
     37 H4          -0.3630    -4.9040     1.9460 ha         1 58K       0.132000
@<TRIPOS>BOND
     1    15     7 ar  
     2    15    14 ar  
     3     7    16 ar  
     4    13    14 1   
     5    13     6 1   
     6    14    18 ar  
     7    16    17 ar  
     8    12     6 2   
     9     6     2 1   
    10    18    17 ar  
    11    18     1 1   
    12     2     3 1   
    13     2    20 1   
    14     1    20 1   
    15     1    19 2   
    16     3    11 1   
    17    20    21 1   
    18    11    10 ar  
    19    11     4 ar  
    20    10     5 ar  
    21     4     9 ar  
    22     5     8 ar  
    23     9     8 ar  
    24     2    22 1   
    25     3    23 1   
    26     3    24 1   
    27     4    37 1   
    28     5    25 1   
    29     7    26 1   
    30     8    27 1   
    31     9    28 1   
    32    10    29 1   
    33    13    30 1   
    34    15    31 1   
    35    16    32 1   
    36    17    33 1   
    37    21    34 1   
    38    21    35 1   
    39    21    36 1   
@<TRIPOS>SUBSTRUCTURE
     1 58K         1 TEMP              0 ****  ****    0 ROOT
