@<TRIPOS>MOLECULE
58L
   34    36     1     0     0
SMALL
bcc


@<TRIPOS>ATOM
      1 C4           0.0000     0.0000     0.0000 c          1 58L       0.623100
      2 C7          -0.1590    -1.5480     1.8790 c3         1 58L      -0.047300
      3 C8           0.7870    -2.5640     1.2350 c3         1 58L      -0.020100
      4 C10         -0.5190    -4.6720     0.8980 ca         1 58L      -0.099000
      5 C13         -0.9290    -4.0730    -1.7700 ca         1 58L      -0.095000
      6 C15          0.6110    -0.6750     2.8310 c          1 58L       0.581500
      7 C20          4.2500    -0.0260    -0.1480 ca         1 58L      -0.056000
      8 C12         -1.4490    -5.2360    -1.2350 ca         1 58L      -0.099000
      9 C11         -1.2440    -5.5350     0.0990 ca         1 58L      -0.095000
     10 C14         -0.2130    -3.2030    -0.9690 ca         1 58L      -0.099000
     11 C9          -0.0030    -3.5060     0.3640 ca         1 58L      -0.099300
     12 O16          0.2520    -0.6070     3.9880 o          1 58L      -0.662500
     13 N17          1.6730     0.0250     2.4420 ns         1 58L      -0.014100
     14 C18          2.2290     0.0000     1.1680 ca         1 58L      -0.068400
     15 C19          3.6240    -0.0060     1.0790 ca         1 58L      -0.140000
     16 C1           3.4910    -0.0150    -1.3160 ca         1 58L      -0.120000
     17 C2           2.1180    -0.0060    -1.2460 ca         1 58L      -0.028000
     18 C3           1.4680     0.0000     0.0000 ca         1 58L      -0.154600
     19 O5          -0.5660     0.6880    -0.8280 o          1 58L      -0.682500
     20 N6          -0.7540    -0.7070     0.8410 ns         1 58L      -0.157900
     21 H1          -0.9440    -2.0660     2.4170 h1         1 58L       0.071700
     22 H2           1.2930    -3.1270     2.0090 hc         1 58L       0.045200
     23 H3           1.5190    -2.0420     0.6300 hc         1 58L       0.045200
     24 H5          -1.0910    -3.8380    -2.8150 ha         1 58L       0.105000
     25 H6           5.3310    -0.0330    -0.2040 ha         1 58L       0.107000
     26 H7          -2.0130    -5.9160    -1.8620 ha         1 58L       0.104000
     27 H8          -1.6510    -6.4480     0.5180 ha         1 58L       0.105000
     28 H9           0.1940    -2.2910    -1.3890 ha         1 58L       0.109500
     29 H10          2.1060     0.6190     3.1210 hn         1 58L       0.182500
     30 H11          4.2190    -0.0140     1.9840 ha         1 58L       0.115000
     31 H12          3.9830    -0.0310    -2.2810 ha         1 58L       0.112000
     32 H13          1.5330     0.0020    -2.1570 ha         1 58L       0.126000
     33 H14         -1.7500    -0.6600     0.7610 hn         1 58L       0.196500
     34 H4          -0.3590    -4.9060     1.9440 ha         1 58L       0.109500
@<TRIPOS>BOND
     1     1    18 1   
     2     1    19 2   
     3     1    20 1   
     4     2     3 1   
     5     2     6 1   
     6     2    20 1   
     7     2    21 1   
     8     3    11 1   
     9     3    22 1   
    10     3    23 1   
    11     4     9 ar  
    12     4    11 ar  
    13     4    34 1   
    14     5     8 ar  
    15     5    10 ar  
    16     5    24 1   
    17     6    12 2   
    18     6    13 1   
    19     7    15 ar  
    20     7    16 ar  
    21     7    25 1   
    22     8     9 ar  
    23     8    26 1   
    24     9    27 1   
    25    10    11 ar  
    26    10    28 1   
    27    13    14 1   
    28    13    29 1   
    29    14    15 ar  
    30    14    18 ar  
    31    15    30 1   
    32    16    17 ar  
    33    16    31 1   
    34    17    18 ar  
    35    17    32 1   
    36    20    33 1   
@<TRIPOS>SUBSTRUCTURE
     1 58L         1 TEMP              0 ****  ****    0 ROOT
