@<TRIPOS>MOLECULE
molecule
   44    46     1     0     0
SMALL
bcc


@<TRIPOS>ATOM
      1 CAT          0.0000     0.0000     0.0000 c3         1 58N      -0.097767
      2 CAS          1.5300     0.0000     0.0000 c3         1 58N       0.082700
      3 CAU          2.0400     0.0000     1.4420 c3         1 58N      -0.097767
      4 CAV          2.0400    -1.2500    -0.7210 c3         1 58N      -0.097767
      5 NAQ          2.0190     1.1960    -0.6910 na         1 58N       0.075400
      6 CAR          1.5500     1.6810    -1.8600 cc         1 58N      -0.096300
      7 NAP          3.0480     2.0360    -0.2500 nc         1 58N      -0.518800
      8 CAO          3.2030     2.9950    -1.1240 cd         1 58N       0.361200
      9 CAN          2.2640     2.8040    -2.1560 cd         1 58N      -0.259300
     10 CAJ          2.0880     3.6650    -3.3520 ca         1 58N       0.047000
     11 CAE          1.9610     5.0480    -3.2080 ca         1 58N       0.067600
     12 NAD          1.9710     5.6320    -1.9410 nu         1 58N      -0.694600
     13 CAC          3.2540     6.2660    -1.6220 c3         1 58N       0.179500
     14 CAH          3.0760     7.1960    -0.4200 c3         1 58N      -0.098100
     15 CAB          3.7590     7.0730    -2.8140 c3         1 58N      -0.195400
     16 CAA          2.6330     7.8680    -3.4220 c          1 58N       0.698500
     17 OAI          2.5470     9.0600    -3.2180 o          1 58N      -0.630500
     18 NAG          1.7230     7.2420    -4.1950 ns         1 58N      -0.486100
     19 CAF          1.8150     5.8500    -4.3390 ca         1 58N       0.006600
     20 CAM          1.7690     5.2710    -5.5980 ca         1 58N      -0.148000
     21 CAL          1.8860     3.8990    -5.7370 ca         1 58N      -0.114000
     22 CAK          2.0560     3.0980    -4.6250 ca         1 58N      -0.134000
     23 H1          -0.3610    -0.2070    -1.0000 hc         1 58N       0.048811
     24 H2          -0.3610     0.9700     0.3210 hc         1 58N       0.048811
     25 H3          -0.3610    -0.7630     0.6790 hc         1 58N       0.048811
     26 H4           1.7040     0.8990     1.9440 hc         1 58N       0.048811
     27 H5           1.6540    -0.8690     1.9620 hc         1 58N       0.048811
     28 H6           3.1230    -0.0310     1.4420 hc         1 58N       0.048811
     29 H7           1.7490    -2.1320    -0.1630 hc         1 58N       0.048811
     30 H8           1.6120    -1.2940    -1.7150 hc         1 58N       0.048811
     31 H9           3.1200    -1.2090    -0.7940 hc         1 58N       0.048811
     32 H10          0.7480     1.2570    -2.4530 h4         1 58N       0.171000
     33 H11          3.9240     3.8010    -1.0620 h4         1 58N       0.049100
     34 H12          1.2390     6.3120    -1.8810 hn         1 58N       0.375800
     35 H13          3.9790     5.4980    -1.3810 h1         1 58N       0.070700
     36 H14          4.0210     7.6700    -0.1870 hc         1 58N       0.048367
     37 H15          2.7400     6.6210     0.4340 hc         1 58N       0.048367
     38 H16          2.3400     7.9540    -0.6570 hc         1 58N       0.048367
     39 H17          4.5360     7.7510    -2.4820 hc         1 58N       0.077200
     40 H18          4.1610     6.3970    -3.5590 hc         1 58N       0.077200
     41 H19          0.9990     7.7590    -4.6540 hn         1 58N       0.339500
     42 H20          1.6360     5.8930    -6.4740 ha         1 58N       0.136000
     43 H21          1.8620     3.4530    -6.7240 ha         1 58N       0.134000
     44 H22          2.1470     2.0250    -4.7410 ha         1 58N       0.137000
@<TRIPOS>BOND
     1    17    16 2   
     2    18    16 1   
     3    18    19 1   
     4    20    19 ar  
     5    20    21 ar  
     6    16    15 1   
     7    19    11 ar  
     8    21    22 ar  
     9    15    13 1   
    10    11    12 1   
    11    11    10 ar  
    12    22    10 ar  
    13    13    14 1   
    14    13    12 1   
    15    10     9 1   
    16     9     6 2   
    17     9     8 1   
    18     6     5 1   
    19     8     7 2   
    20     5     7 1   
    21     5     2 1   
    22     3     2 1   
    23     2     4 1   
    24     2     1 1   
    25     1    23 1   
    26     1    24 1   
    27     1    25 1   
    28     3    26 1   
    29     3    27 1   
    30     3    28 1   
    31     4    29 1   
    32     4    30 1   
    33     4    31 1   
    34     6    32 1   
    35     8    33 1   
    36    12    34 1   
    37    13    35 1   
    38    14    36 1   
    39    14    37 1   
    40    14    38 1   
    41    15    39 1   
    42    15    40 1   
    43    18    41 1   
    44    20    42 1   
    45    21    43 1   
    46    22    44 1   
@<TRIPOS>SUBSTRUCTURE
     1 58N         1 TEMP              0 ****  ****    0 ROOT
