@<TRIPOS>MOLECULE
58O
   58    63     1     0     0
SMALL
bcc


@<TRIPOS>ATOM
      1 C4           0.0000     0.0000     0.0000 c2         1 58O      -0.077000
      2 C5           1.3990     0.0000     0.0000 c2         1 58O      -0.271000
      3 C6           2.0540     0.0000     1.2580 c2         1 58O       0.079000
      4 N1           1.3220    -0.0000     2.3620 n2         1 58O      -0.168000
      5 N3          -0.6510    -0.0050     1.1700 n2         1 58O      -0.130000
      6 FAC          0.2580    -2.1020    -4.0670 f          1 58O      -0.135667
      7 CBI          1.4740    -1.4440    -4.2750 c3         1 58O       0.394000
      8 FAD          2.4890    -2.1030    -3.5730 f          1 58O      -0.135667
      9 FAE          1.7770    -1.4440    -5.6410 f          1 58O      -0.135667
     10 CAY          1.0390    -0.0010    -2.3060 c2         1 58O      -0.359000
     11 SAW         -0.5900    -0.0000    -1.6560 ss         1 58O       0.293000
     12 CAJ          1.9420    -0.0010    -1.3450 c2         1 58O      -0.050000
     13 C2           0.0020    -0.0000     2.3090 c2         1 58O       0.036000
     14 NAT          3.4360    -0.0010     1.3300 nu         1 58O       0.076000
     15 CBG          4.1000    -0.0010     2.6350 c3         1 58O      -0.063000
     16 CAM          5.4970    -0.6120     2.4970 c3         1 58O      -0.096000
     17 CAO          6.2110    -0.5540     3.8500 c3         1 58O      -0.479000
     18 CAL          4.2290     1.4360     3.1440 c3         1 58O      -0.096000
     19 CAN          4.9780     1.4350     4.4790 c3         1 58O      -0.479000
     20 NBH          6.3080     0.8420     4.2940 n3         1 58O       1.727000
     21 CAP          7.1080     0.9500     5.5210 c3         1 58O      -0.589000
     22 CAZ          8.5340     0.5600     5.2280 c3         1 58O      -0.032000
     23 CAI          8.9730    -0.6910     5.5470 c2         1 58O       0.079000
     24 CBC         10.2970    -1.0580     5.2750 c2         1 58O      -0.158000
     25 CAH         11.0370    -2.2470     5.4800 c2         1 58O      -0.096000
     26 CAX         12.2990    -2.0360     5.0180 c2         1 58O      -0.078000
     27 CAF         13.3620    -2.9950     5.0410 c1         1 58O      -0.089000
     28 NAB         14.1930    -3.7690     5.0520 n1         1 58O      -0.027000
     29 NAU         12.3910    -0.7490     4.5240 na         1 58O       0.354000
     30 CBD         11.1700    -0.1300     4.6720 c2         1 58O      -0.162000
     31 CAK         10.7050     1.1420     4.3540 c2         1 58O      -0.200000
     32 CBA          9.3920     1.4800     4.6260 c2         1 58O       0.043000
     33 OAV          8.9370     2.7200     4.3100 os         1 58O      -0.199000
     34 CAA          9.8650     3.6160     3.6960 c3         1 58O       0.045000
     35 H1           2.2330     0.1510    -3.1480 hc         1 58O       0.192500
     36 H2           0.5180     0.5980    -3.4630 hc         1 58O       0.192500
     37 H3           3.0080     0.1760    -1.4200 ha         1 58O       0.127000
     38 H4          -0.6350    -0.0760     3.1810 h5         1 58O       0.140000
     39 H5           4.0240    -0.3150     0.5830 hn         1 58O       0.086000
     40 H6           3.5210    -0.5830     3.3410 h1         1 58O       0.118000
     41 H7           5.3430    -1.6610     2.2740 hc         1 58O       0.051500
     42 H8           6.1950    -0.0970     1.8480 hc         1 58O       0.051500
     43 H9           6.4800     0.4570     4.1320 h1         1 58O      -0.151750
     44 H10          7.1720    -1.0250     3.6840 h1         1 58O      -0.151750
     45 H11          3.3040     1.9970     3.2120 hc         1 58O       0.051500
     46 H12          4.6500     2.0230     2.3370 hc         1 58O       0.051500
     47 H13          4.9150     2.3490     5.0580 h1         1 58O      -0.151750
     48 H14          5.9450     1.0350     4.2010 h1         1 58O      -0.151750
     49 H16          6.6510     1.8680     5.8710 h1         1 58O       0.170000
     50 H17          8.0480     1.4470     5.3130 DU         1 58O       0.155000
     51 H18          8.5020    -1.2920     6.3160 ha         1 58O       0.134000
     52 H19         10.5240    -3.1520     5.7850 ha         1 58O       0.145000
     53 H20         13.0330    -0.0930     4.1240 hn         1 58O       0.086000
     54 H21         11.4030     1.9410     4.1340 ha         1 58O       0.128000
     55 H22          9.3990     4.0350     2.8120 h1         1 58O       0.046000
     56 H23         10.6670     3.1920     3.1030 h1         1 58O       0.046000
     57 H24         10.3260     4.3050     4.3930 h1         1 58O       0.046000
     58 CAQ          1.3650    -0.0000    -3.7780 c3         1 58O      -0.232000
@<TRIPOS>BOND
     1     1     2 1   
     2     1     5 1   
     3     1    11 1   
     4     2     3 1   
     5     2    12 1   
     6     3     4 1   
     7     3    14 1   
     8     4    13 1   
     9     5    13 1   
    10     6     7 1   
    11     7     8 1   
    12     7     9 1   
    13     7    58 1   
    14    10    11 1   
    15    10    12 1   
    16    10    58 1   
    17    12    37 1   
    18    13    38 1   
    19    14    15 1   
    20    14    39 1   
    21    15    16 1   
    22    15    18 1   
    23    15    40 1   
    24    16    17 1   
    25    16    41 1   
    26    16    42 1   
    27    17    20 1   
    28    17    43 1   
    29    17    44 1   
    30    18    19 1   
    31    18    45 1   
    32    18    46 1   
    33    19    20 1   
    34    19    47 1   
    35    19    48 1   
    36    20    21 1   
    37    21    22 1   
    38    21    49 1   
    39    21    50 1   
    40    22    23 1   
    41    22    32 1   
    42    22    50 1   
    43    23    24 1   
    44    23    51 1   
    45    24    25 1   
    46    24    30 1   
    47    25    26 1   
    48    25    52 1   
    49    26    27 1   
    50    26    29 1   
    51    27    28 1   
    52    29    30 1   
    53    29    53 1   
    54    30    31 1   
    55    31    32 1   
    56    31    54 1   
    57    32    33 1   
    58    33    34 1   
    59    34    55 1   
    60    34    56 1   
    61    34    57 1   
    62    35    58 1   
    63    36    58 1   
@<TRIPOS>SUBSTRUCTURE
     1 58O         1 TEMP              0 ****  ****    0 ROOT
