@<TRIPOS>MOLECULE
molecule
   58    62     1     0     0
SMALL
bcc


@<TRIPOS>ATOM
      1 C4           0.0000     0.0000     0.0000 ca         1 58O       0.559600
      2 C5           1.3990     0.0000     0.0000 ca         1 58O      -0.406400
      3 C6           2.0540     0.0000     1.2580 ca         1 58O       0.778200
      4 N1           1.3220    -0.0000     2.3620 nb         1 58O      -0.801000
      5 N3          -0.6510    -0.0050     1.1700 nb         1 58O      -0.770000
      6 FAC          0.2580    -2.1020    -4.0670 f          1 58O      -0.222967
      7 CBI          1.4740    -1.4440    -4.2750 c3         1 58O       0.645900
      8 FAD          2.4890    -2.1030    -3.5730 f          1 58O      -0.222967
      9 FAE          1.7770    -1.4440    -5.6410 f          1 58O      -0.222967
     10 CAY          1.0390    -0.0010    -2.3060 cc         1 58O      -0.153600
     11 SAW         -0.5900    -0.0000    -1.6560 ss         1 58O      -0.151900
     12 CAJ          1.9420    -0.0010    -1.3450 cd         1 58O      -0.083200
     13 C2           0.0020    -0.0000     2.3090 ca         1 58O       0.745900
     14 NAT          3.4360    -0.0010     1.3300 nu         1 58O      -0.884900
     15 CBG          4.1000    -0.0010     2.6350 c3         1 58O       0.232500
     16 CAM          5.4970    -0.6120     2.4970 c3         1 58O      -0.049400
     17 CAO          6.2110    -0.5540     3.8500 c3         1 58O      -0.353200
     18 CAL          4.2290     1.4360     3.1440 c3         1 58O      -0.049400
     19 CAN          4.9780     1.4350     4.4790 c3         1 58O      -0.353200
     20 NBH          6.3080     0.8420     4.2940 n3         1 58O      -0.428600
     21 CAP          7.1080     0.9500     5.5210 c3         1 58O      -0.054900
     22 CAZ          8.5340     0.5600     5.2280 ca         1 58O      -0.098300
     23 CAI          8.9730    -0.6910     5.5470 ca         1 58O       0.082000
     24 CBC         10.2970    -1.0580     5.2750 ca         1 58O      -0.177800
     25 CAH         11.0370    -2.2470     5.4800 cc         1 58O      -0.107200
     26 CAX         12.2990    -2.0360     5.0180 cd         1 58O       0.079200
     27 CAF         13.3620    -2.9950     5.0410 ch         1 58O       0.210500
     28 NAB         14.1930    -3.7690     5.0520 n1         1 58O      -0.321800
     29 NAU         12.3910    -0.7490     4.5240 na         1 58O      -0.159400
     30 CBD         11.1700    -0.1300     4.6720 ca         1 58O      -0.006200
     31 CAK         10.7050     1.1420     4.3540 ca         1 58O      -0.240000
     32 CBA          9.3920     1.4800     4.6260 ca         1 58O       0.099100
     33 OAV          8.9370     2.7200     4.3100 os         1 58O      -0.324900
     34 CAA          9.8650     3.6160     3.6960 c3         1 58O       0.110700
     35 H1           2.2330     0.1510    -3.1480 hc         1 58O       0.170200
     36 H2           0.5180     0.5980    -3.4630 hc         1 58O       0.170200
     37 H3           3.0080     0.1760    -1.4200 ha         1 58O       0.153000
     38 H4          -0.6350    -0.0760     3.1810 h5         1 58O       0.067100
     39 H5           4.0240    -0.3150     0.5830 hn         1 58O       0.437800
     40 H6           3.5210    -0.5830     3.3410 h1         1 58O       0.114700
     41 H7           5.3430    -1.6610     2.2740 hc         1 58O       0.038700
     42 H8           6.1950    -0.0970     1.8480 hc         1 58O       0.038700
     43 H9           6.4800     0.4570     4.1320 h1         1 58O       0.173450
     44 H10          7.1720    -1.0250     3.6840 h1         1 58O       0.173450
     45 H11          3.3040     1.9970     3.2120 hc         1 58O       0.038700
     46 H12          4.6500     2.0230     2.3370 hc         1 58O       0.038700
     47 H13          4.9150     2.3490     5.0580 h1         1 58O       0.173450
     48 H14          5.9450     1.0350     4.2010 h1         1 58O       0.173450
     49 H16          6.6510     1.8680     5.8710 h1         1 58O       0.159700
     50 H17          8.0480     1.4470     5.3130 h1         1 58O       0.159700
     51 H18          8.5020    -1.2920     6.3160 ha         1 58O       0.181000
     52 H19         10.5240    -3.1520     5.7850 ha         1 58O       0.181000
     53 H20         13.0330    -0.0930     4.1240 hn         1 58O       0.322700
     54 H21         11.4030     1.9410     4.1340 ha         1 58O       0.146000
     55 H22          9.3990     4.0350     2.8120 h1         1 58O       0.056367
     56 H23         10.6670     3.1920     3.1030 h1         1 58O       0.056367
     57 H24         10.3260     4.3050     4.3930 h1         1 58O       0.056367
     58 CAQ          1.3650    -0.0000    -3.7780 c3         1 58O      -0.177200
@<TRIPOS>BOND
     1    19    18 1   
     2    19    20 1   
     3    18    15 1   
     4    21    20 1   
     5    21    22 1   
     6    33    34 1   
     7    33    32 1   
     8    20    17 1   
     9     9     7 1   
    10    22    32 ar  
    11    22    23 ar  
    12    32    31 ar  
    13    15    14 1   
    14    15    16 1   
    15     4    13 ar  
    16     4     3 ar  
    17    14     3 1   
    18    23    24 ar  
    19    13     5 ar  
    20     8     7 1   
    21     3     2 ar  
    22    31    30 ar  
    23    17    16 1   
    24     7     6 1   
    25     7    58 1   
    26     5     1 ar  
    27     2     1 ar  
    28     2    12 1   
    29     1    11 1   
    30    24    30 ar  
    31    24    25 1   
    32    12    10 2   
    33    30    29 1   
    34    10    11 1   
    35    10    58 1   
    36    25    26 2   
    37    29    26 1   
    38    26    27 1   
    39    27    28 3   
    40    58    35 1   
    41    58    36 1   
    42    12    37 1   
    43    13    38 1   
    44    14    39 1   
    45    15    40 1   
    46    16    41 1   
    47    16    42 1   
    48    17    43 1   
    49    17    44 1   
    50    18    45 1   
    51    18    46 1   
    52    19    47 1   
    53    19    48 1   
    54    21    49 1   
    55    21    50 1   
    56    23    51 1   
    57    25    52 1   
    58    29    53 1   
    59    31    54 1   
    60    34    55 1   
    61    34    56 1   
    62    34    57 1   
@<TRIPOS>SUBSTRUCTURE
     1 58O         1 TEMP              0 ****  ****    0 ROOT
