@<TRIPOS>MOLECULE
molecule
   65    69     1     0     0
SMALL
bcc


@<TRIPOS>ATOM
      1 C4           0.0000     0.0000     0.0000 ca         1 58P       0.551600
      2 C5           1.3970     0.0000     0.0000 ca         1 58P      -0.383400
      3 C6           2.0530     0.0000     1.2590 ca         1 58P       0.742200
      4 N1           1.3210     0.0010     2.3620 nb         1 58P      -0.829000
      5 N3          -0.6520     0.0000     1.1700 nb         1 58P      -0.758000
      6 FAE          0.1140    -2.0930    -4.0290 f          1 58P      -0.215967
      7 CBM          1.4880    -1.4590    -4.2700 c3         1 58P       0.638900
      8 FAF          2.5060    -2.1070    -3.5650 f          1 58P      -0.215967
      9 FAG          1.7910    -1.4610    -5.6350 f          1 58P      -0.215967
     10 CBB          1.0390    -0.0120    -2.3060 cc         1 58P      -0.112600
     11 SAZ         -0.5900    -0.0080    -1.6560 ss         1 58P      -0.113900
     12 CAN          1.9410    -0.0010    -1.3440 cd         1 58P      -0.088200
     13 C2           0.0010     0.0010     2.3090 ca         1 58P       0.737900
     14 NAY          3.4340    -0.0000     1.3320 nu         1 58P      -0.886900
     15 CBI          4.0990     0.0000     2.6360 c3         1 58P       0.285500
     16 CAQ          4.2260    -1.4370     3.1470 c3         1 58P      -0.112900
     17 CAS          4.9750    -1.4350     4.4820 c3         1 58P       0.165800
     18 CAP          5.4970     0.6100     2.4990 c3         1 58P      -0.112900
     19 CAR          6.2100     0.5520     3.8520 c3         1 58P       0.165800
     20 NBJ          6.3060    -0.8440     4.2960 n3         1 58P      -0.698600
     21 CAT          7.1050    -0.9510     5.5240 c3         1 58P       0.204100
     22 CBA          8.5320    -0.5630     5.2310 ca         1 58P      -0.074300
     23 CAL          8.9190     0.7390     5.3630 ca         1 58P      -0.079000
     24 CAJ          9.4410    -1.5360     4.8350 ca         1 58P      -0.085000
     25 CAK         10.7490    -1.2020     4.5620 ca         1 58P      -0.161000
     26 CBH         11.1670     0.1200     4.6830 ca         1 58P      -0.045200
     27 CBE         10.2440     1.1030     5.0900 ca         1 58P      -0.138800
     28 CAM         10.9410     2.3350     5.1240 cd         1 58P      -0.149200
     29 CBC         12.2260     2.0940     4.7520 cc         1 58P       0.066200
     30 CAH         13.2610     3.0790     4.6590 cg         1 58P       0.233500
     31 NAA         14.0750     3.8670     4.5700 n1         1 58P      -0.360800
     32 NBK         12.3750     0.7480     4.4860 na         1 58P      -0.054400
     33 CAV         13.6150     0.0960     4.0570 c3         1 58P       0.003300
     34 CBL         14.4020    -0.3640     5.2860 c3         1 58P       0.151100
     35 OAD         14.8160     0.7780     6.0410 oh         1 58P      -0.595800
     36 CAO         15.6340    -1.1530     4.8390 c3         1 58P       0.065400
     37 OAB         16.3050    -1.6800     5.9850 oh         1 58P      -0.571800
     38 H1           2.1250     0.7500    -3.8860 hc         1 58P       0.096700
     39 H2           0.5720     0.6670    -4.0570 hc         1 58P       0.096700
     40 H3           2.9490     0.0080    -1.7430 ha         1 58P       0.151000
     41 H4          -0.5530     0.1130     3.2330 h5         1 58P       0.061100
     42 H5           3.7660    -0.2160     0.4120 hn         1 58P       0.448800
     43 H6           3.5200     0.5830     3.3420 h1         1 58P       0.088700
     44 H7           3.2310    -1.6630     3.5120 hc         1 58P       0.048700
     45 H8           4.2310    -2.1480     2.3300 hc         1 58P       0.048700
     46 H9           4.6160    -0.7060     5.1980 h1         1 58P       0.045700
     47 H10          5.0380    -2.4060     4.9580 h1         1 58P       0.045700
     48 H11          6.1420     0.2660     1.6990 hc         1 58P       0.048700
     49 H12          5.6020     1.5860     2.0420 hc         1 58P       0.048700
     50 H13          7.1740     0.8830     3.4850 h1         1 58P       0.045700
     51 H14          5.7530     1.4070     4.3350 h1         1 58P       0.045700
     52 H16          6.8220    -0.2770     6.3240 h1         1 58P       0.044700
     53 H17          7.0900    -1.9850     5.8460 h1         1 58P       0.044700
     54 H18          8.4900     1.5980     5.8640 ha         1 58P       0.141000
     55 H19          9.3820    -2.5260     4.3980 ha         1 58P       0.147000
     56 H20         11.5350    -1.9040     4.3110 ha         1 58P       0.122000
     57 H21         10.4770     3.0680     5.7720 ha         1 58P       0.166000
     58 H22         13.2560    -0.5240     3.2440 h1         1 58P       0.065200
     59 H23         14.0700     0.8430     3.4180 h1         1 58P       0.065200
     60 H24         13.7740    -0.9950     5.9020 h1         1 58P       0.094700
     61 H25         15.6990     1.0610     5.8660 ho         1 58P       0.418000
     62 H26         15.3470    -2.1680     4.5900 h1         1 58P       0.056200
     63 H27         16.1130    -0.4360     4.1830 h1         1 58P       0.056200
     64 H28         16.5670    -2.4760     5.5530 ho         1 58P       0.396000
     65 CAU          1.3660    -0.0150    -3.7770 c3         1 58P      -0.092200
@<TRIPOS>BOND
     1    31    30 3   
     2    30    29 1   
     3    33    32 1   
     4    33    34 1   
     5    29    32 1   
     6    29    28 2   
     7    32    26 1   
     8    65    10 1   
     9    65     7 1   
    10    28    27 1   
    11    11    10 1   
    12    11     1 1   
    13    10    12 2   
    14    36    34 1   
    15    36    37 1   
    16    26    27 ar  
    17    26    25 ar  
    18    12     2 1   
    19    27    23 ar  
    20    34    35 1   
    21    16    17 1   
    22    16    15 1   
    23     1     2 ar  
    24     1     5 ar  
    25     9     7 1   
    26     2     3 ar  
    27    17    20 1   
    28     5    13 ar  
    29    25    24 ar  
    30     7     6 1   
    31     7     8 1   
    32    23    22 ar  
    33     3    14 1   
    34     3     4 ar  
    35    14    15 1   
    36    13     4 ar  
    37    15    18 1   
    38    24    22 ar  
    39    22    21 1   
    40    20    21 1   
    41    20    19 1   
    42    18    19 1   
    43    65    38 1   
    44    65    39 1   
    45    12    40 1   
    46    13    41 1   
    47    14    42 1   
    48    15    43 1   
    49    16    44 1   
    50    16    45 1   
    51    17    46 1   
    52    17    47 1   
    53    18    48 1   
    54    18    49 1   
    55    19    50 1   
    56    19    51 1   
    57    21    52 1   
    58    21    53 1   
    59    23    54 1   
    60    24    55 1   
    61    25    56 1   
    62    28    57 1   
    63    33    58 1   
    64    33    59 1   
    65    34    60 1   
    66    35    61 1   
    67    36    62 1   
    68    36    63 1   
    69    37    64 1   
@<TRIPOS>SUBSTRUCTURE
     1 58P         1 TEMP              0 ****  ****    0 ROOT
