@<TRIPOS>MOLECULE
58P
   65    69     1     0     0
SMALL
bcc


@<TRIPOS>ATOM
      1 C4           0.0000     0.0000     0.0000 ca         1 58P       0.571600
      2 C5           1.3970     0.0000     0.0000 ca         1 58P      -0.380400
      3 C6           2.0530     0.0000     1.2590 ca         1 58P       0.571200
      4 N1           1.3210     0.0010     2.3620 nb         1 58P      -0.727000
      5 N3          -0.6520     0.0000     1.1700 nb         1 58P      -0.643000
      6 FAE          0.1140    -2.0930    -4.0290 f          1 58P      -0.209967
      7 CBM          1.4880    -1.4590    -4.2700 c3         1 58P       0.631900
      8 FAF          2.5060    -2.1070    -3.5650 f          1 58P      -0.209967
      9 FAG          1.7910    -1.4610    -5.6350 f          1 58P      -0.209967
     10 CBB          1.0390    -0.0120    -2.3060 cc         1 58P      -0.070600
     11 SAZ         -0.5900    -0.0080    -1.6560 ss         1 58P      -0.259900
     12 CAN          1.9410    -0.0010    -1.3440 cd         1 58P      -0.047200
     13 C2           0.0010     0.0010     2.3090 ca         1 58P       0.692900
     14 NAY          3.4340    -0.0000     1.3320 nu         1 58P      -0.484900
     15 CBI          4.0990     0.0000     2.6360 c3         1 58P       0.181500
     16 CAQ          4.2260    -1.4370     3.1470 c3         1 58P      -0.062400
     17 CAS          4.9750    -1.4350     4.4820 c3         1 58P       0.159300
     18 CAP          5.4970     0.6100     2.4990 c3         1 58P      -0.062400
     19 CAR          6.2100     0.5520     3.8520 c3         1 58P       0.159300
     20 NBJ          6.3060    -0.8440     4.2960 n3         1 58P      -0.512600
     21 CAT          7.1050    -0.9510     5.5240 c3         1 58P       0.205100
     22 CBA          8.5320    -0.5630     5.2310 ca         1 58P      -0.076300
     23 CAL          8.9190     0.7390     5.3630 ca         1 58P      -0.048000
     24 CAJ          9.4410    -1.5360     4.8350 ca         1 58P      -0.062000
     25 CAK         10.7490    -1.2020     4.5620 ca         1 58P      -0.125000
     26 CBH         11.1670     0.1200     4.6830 ca         1 58P      -0.222200
     27 CBE         10.2440     1.1030     5.0900 ca         1 58P      -0.141800
     28 CAM         10.9410     2.3350     5.1240 cc         1 58P      -0.127200
     29 CBC         12.2260     2.0940     4.7520 cd         1 58P      -0.058800
     30 CAH         13.2610     3.0790     4.6590 ch         1 58P       0.231500
     31 NAA         14.0750     3.8670     4.5700 n1         1 58P      -0.386800
     32 NBK         12.3750     0.7480     4.4860 na         1 58P       0.416600
     33 CAV         13.6150     0.0960     4.0570 c3         1 58P      -0.088700
     34 CBL         14.4020    -0.3640     5.2860 c3         1 58P       0.186100
     35 OAD         14.8160     0.7780     6.0410 oh         1 58P      -0.584800
     36 CAO         15.6340    -1.1530     4.8390 c3         1 58P       0.145400
     37 OAB         16.3050    -1.6800     5.9850 oh         1 58P      -0.564800
     38 H1           2.1250     0.7500    -3.8860 hc         1 58P       0.067700
     39 H2           0.5720     0.6670    -4.0570 hc         1 58P       0.067700
     40 H3           2.9490     0.0080    -1.7430 ha         1 58P       0.126000
     41 H4          -0.5530     0.1130     3.2330 h5         1 58P      -0.000900
     42 H5           3.7660    -0.2160     0.4120 hn         1 58P       0.302800
     43 H6           3.5200     0.5830     3.3420 h1         1 58P       0.062700
     44 H7           3.2310    -1.6630     3.5120 hc         1 58P       0.018950
     45 H8           4.2310    -2.1480     2.3300 hc         1 58P       0.018950
     46 H9           4.6160    -0.7060     5.1980 h1         1 58P       0.019700
     47 H10          5.0380    -2.4060     4.9580 h1         1 58P       0.019700
     48 H11          6.1420     0.2660     1.6990 hc         1 58P       0.018950
     49 H12          5.6020     1.5860     2.0420 hc         1 58P       0.018950
     50 H13          7.1740     0.8830     3.4850 h1         1 58P       0.019700
     51 H14          5.7530     1.4070     4.3350 h1         1 58P       0.019700
     52 H16          6.8220    -0.2770     6.3240 h1         1 58P       0.017700
     53 H17          7.0900    -1.9850     5.8460 h1         1 58P       0.017700
     54 H18          8.4900     1.5980     5.8640 ha         1 58P       0.115000
     55 H19          9.3820    -2.5260     4.3980 ha         1 58P       0.118000
     56 H20         11.5350    -1.9040     4.3110 ha         1 58P       0.099000
     57 H21         10.4770     3.0680     5.7720 ha         1 58P       0.139000
     58 H22         13.2560    -0.5240     3.2440 h1         1 58P       0.037200
     59 H23         14.0700     0.8430     3.4180 h1         1 58P       0.037200
     60 H24         13.7740    -0.9950     5.9020 h1         1 58P       0.051700
     61 H25         15.6990     1.0610     5.8660 ho         1 58P       0.409000
     62 H26         15.3470    -2.1680     4.5900 h1         1 58P       0.021200
     63 H27         16.1130    -0.4360     4.1830 h1         1 58P       0.021200
     64 H28         16.5670    -2.4760     5.5530 ho         1 58P       0.390000
     65 CAU          1.3660    -0.0150    -3.7770 c3         1 58P      -0.040200
@<TRIPOS>BOND
     1     1     2 ar  
     2     1     5 ar  
     3     1    11 1   
     4     2     3 ar  
     5     2    12 1   
     6     3     4 ar  
     7     3    14 1   
     8     4    13 ar  
     9     5    13 ar  
    10     6     7 1   
    11     7     8 1   
    12     7     9 1   
    13     7    65 1   
    14    10    11 1   
    15    10    12 2   
    16    10    65 1   
    17    12    40 1   
    18    13    41 1   
    19    14    15 1   
    20    14    42 1   
    21    15    16 1   
    22    15    18 1   
    23    15    43 1   
    24    16    17 1   
    25    16    44 1   
    26    16    45 1   
    27    17    20 1   
    28    17    46 1   
    29    17    47 1   
    30    18    19 1   
    31    18    48 1   
    32    18    49 1   
    33    19    20 1   
    34    19    50 1   
    35    19    51 1   
    36    20    21 1   
    37    21    22 1   
    38    21    52 1   
    39    21    53 1   
    40    22    23 ar  
    41    22    24 ar  
    42    23    27 ar  
    43    23    54 1   
    44    24    25 ar  
    45    24    55 1   
    46    25    26 ar  
    47    25    56 1   
    48    26    27 ar  
    49    26    32 1   
    50    27    28 1   
    51    28    29 2   
    52    28    57 1   
    53    29    30 1   
    54    29    32 1   
    55    30    31 3   
    56    32    33 1   
    57    33    34 1   
    58    33    58 1   
    59    33    59 1   
    60    34    35 1   
    61    34    36 1   
    62    34    60 1   
    63    35    61 1   
    64    36    37 1   
    65    36    62 1   
    66    36    63 1   
    67    37    64 1   
    68    38    65 1   
    69    39    65 1   
@<TRIPOS>SUBSTRUCTURE
     1 58P         1 TEMP              0 ****  ****    0 ROOT
