@<TRIPOS>MOLECULE
58Q
   71    77     1     0     0
SMALL
bcc


@<TRIPOS>ATOM
      1 C4           0.0000     0.0000     0.0000 c2         1 58Q      -0.080000
      2 C5           1.3970     0.0000     0.0000 c2         1 58Q      -0.271000
      3 C6           2.0530     0.0000     1.2580 c2         1 58Q       0.087000
      4 N1           1.3210     0.0010     2.3620 n2         1 58Q      -0.180000
      5 N3          -0.6520    -0.0030     1.1690 n2         1 58Q      -0.142000
      6 FAD          0.2100    -2.0270    -4.1770 f          1 58Q      -0.134667
      7 CBP          1.4760    -1.4490    -4.2730 c3         1 58Q       0.360000
      8 FAE          2.4890    -2.1080    -3.5700 f          1 58Q      -0.134667
      9 FAF          1.7800    -1.4500    -5.6390 f          1 58Q      -0.134667
     10 CBE          1.0390    -0.0040    -2.3060 c2         1 58Q      -0.280000
     11 SBA         -0.5900    -0.0020    -1.6570 ss         1 58Q       0.302000
     12 CAL          1.9410    -0.0020    -1.3440 c2         1 58Q      -0.042000
     13 C2           0.0010     0.0020     2.3090 c2         1 58Q       0.030000
     14 NAX          3.4340    -0.0000     1.3310 nu         1 58Q       0.139000
     15 CBM          4.0990     0.0010     2.6360 c3         1 58Q       0.005000
     16 CAO          5.4960    -0.6100     2.5000 c3         1 58Q      -0.405000
     17 CAQ          6.2080    -0.5500     3.8540 c3         1 58Q       0.103000
     18 CAN          4.2260     1.4400     3.1440 c3         1 58Q      -0.392000
     19 CAP          4.9750     1.4400     4.4800 DU         1 58Q      -0.037000
     20 NBN          6.3060     0.8460     4.2950 n3         1 58Q      -0.213000
     21 CAR          7.1050     0.9550     5.5230 c3         1 58Q      -0.019000
     22 CBH          8.5320     0.5650     5.2310 ca         1 58Q      -0.109000
     23 CBC          8.9160    -0.7370     5.3590 ca         1 58Q       0.013000
     24 CAB          7.9180    -1.7800     5.7910 c3         1 58Q      -0.136000
     25 CBF          9.4440     1.5370     4.8260 ca         1 58Q       0.158000
     26 OAZ          9.0420     2.8290     4.6980 os         1 58Q      -0.205000
     27 CAA         10.0260     3.7760     4.2790 c3         1 58Q       0.015000
     28 CAM         10.7570     1.1980     4.5530 ca         1 58Q      -0.241000
     29 CBL         11.1690    -0.1240     4.6840 ca         1 58Q      -0.098000
     30 CBI         10.2410    -1.1040     5.0880 ca         1 58Q      -0.157000
     31 CAK         10.9330    -2.3380     5.1270 c2         1 58Q      -0.108000
     32 CBD         12.2210    -2.1030     4.7600 c2         1 58Q      -0.098000
     33 CAG         13.2530    -3.0920     4.6700 c1         1 58Q      -0.066000
     34 NAC         14.0840    -3.8630     4.6080 n1         1 58Q      -0.061000
     35 NBO         12.3770    -0.7560     4.4900 na         1 58Q       0.290000
     36 CAS         13.6190    -0.1090     4.0590 c3         1 58Q       0.005000
     37 CBB         14.3900     0.3540     5.2690 c2         1 58Q      -0.302000
     38 CAI         15.3120    -0.3640     5.9490 c2         1 58Q      -0.193000
     39 NAU         15.7670     0.4030     6.9620 na         1 58Q       0.316000
     40 NAY         15.1020     1.6350     6.9020 n2         1 58Q      -0.223000
     41 CAJ         14.2810     1.6060     5.8840 c2         1 58Q      -0.045000
     42 H1           2.1870     0.5540    -4.2110 hc         1 58Q       0.098000
     43 H2           0.4380     0.4420    -4.1100 hc         1 58Q       0.098000
     44 H3           2.9620     0.3440    -1.4490 ha         1 58Q       0.120000
     45 H4          -0.6710     0.0500     3.1570 h5         1 58Q       0.135000
     46 H5           4.0860    -0.0900     0.5770 hn         1 58Q       0.096000
     47 H6           3.5190    -0.5800     3.3440 h1         1 58Q       0.095000
     48 H7           6.2210    -0.1850     1.8150 hc         1 58Q       0.089000
     49 H8           6.0440    -0.3750     3.4050 hc         1 58Q       0.089000
     50 H9           5.9600    -1.2360     4.6550 h1         1 58Q       0.085500
     51 H10          7.2120    -0.9120     3.6660 h1         1 58Q       0.085500
     52 H11          4.3800     1.4900     4.2160 DU         1 58Q       0.166000
     53 H12          4.5740     2.2430     2.5060 hc         1 58Q       0.142000
     54 H13          5.1710     2.2600     5.1600 ha         1 58Q       0.051500
     55 H14          4.4310     0.9850     5.2990 ha         1 58Q       0.051500
     56 H16          6.6420     1.9220     5.6820 h1         1 58Q       0.052000
     57 H17          6.3800     0.5890     6.2400 h1         1 58Q       0.052000
     58 H18          7.7500    -2.4320     4.9420 hc         1 58Q       0.080333
     59 H19          8.6900    -2.1250     6.4680 hc         1 58Q       0.080333
     60 H20          6.9150    -1.4160     5.9770 hc         1 58Q       0.080333
     61 H21         10.5000     4.1230     5.1900 h1         1 58Q       0.065333
     62 H22         10.3010     3.4350     3.2880 h1         1 58Q       0.065333
     63 H23          9.1720     4.4090     4.0700 h1         1 58Q       0.065333
     64 H24         11.5270     1.9520     4.4460 ha         1 58Q       0.124000
     65 H25         10.4360    -3.2230     5.5040 ha         1 58Q       0.137000
     66 H26         13.7820    -0.8870     3.3230 h1         1 58Q       0.079500
     67 H27         13.2940     0.7960     3.5600 h1         1 58Q       0.079500
     68 H28         15.7650    -1.2700     5.5650 h4         1 58Q       0.155000
     69 H29         16.4550     0.2950     7.6810 hn         1 58Q       0.109000
     70 H30         13.6130     2.3160     5.4110 h4         1 58Q       0.142000
     71 CAT          1.3670    -0.0050    -3.7780 c3         1 58Q      -0.086000
@<TRIPOS>BOND
     1     1     2 1   
     2     1     5 1   
     3     1    11 1   
     4     2     3 1   
     5     2    12 1   
     6     3     4 1   
     7     3    14 1   
     8     4    13 1   
     9     5    13 1   
    10     6     7 1   
    11     7     8 1   
    12     7     9 1   
    13     7    71 1   
    14    10    11 1   
    15    10    12 1   
    16    10    71 1   
    17    12    44 1   
    18    13    45 1   
    19    14    15 1   
    20    14    46 1   
    21    15    16 1   
    22    15    18 1   
    23    15    47 1   
    24    16    17 1   
    25    16    48 1   
    26    16    49 1   
    27    17    20 1   
    28    17    50 1   
    29    17    51 1   
    30    18    19 1   
    31    18    52 1   
    32    18    53 1   
    33    19    20 1   
    34    19    52 1   
    35    19    54 1   
    36    19    55 1   
    37    20    21 1   
    38    21    22 1   
    39    21    56 1   
    40    21    57 1   
    41    22    23 1   
    42    22    25 1   
    43    23    24 1   
    44    23    30 1   
    45    24    58 1   
    46    24    59 1   
    47    24    60 1   
    48    25    26 1   
    49    25    28 1   
    50    26    27 1   
    51    27    61 1   
    52    27    62 1   
    53    27    63 1   
    54    28    29 1   
    55    28    64 1   
    56    29    30 1   
    57    29    35 1   
    58    30    31 1   
    59    31    32 1   
    60    31    65 1   
    61    32    33 1   
    62    32    35 1   
    63    33    34 1   
    64    35    36 1   
    65    36    37 1   
    66    36    66 1   
    67    36    67 1   
    68    37    38 1   
    69    37    41 1   
    70    38    39 1   
    71    38    68 1   
    72    39    40 1   
    73    39    69 1   
    74    40    41 1   
    75    41    70 1   
    76    42    71 1   
    77    43    71 1   
@<TRIPOS>SUBSTRUCTURE
     1 58Q         1 TEMP              0 ****  ****    0 ROOT
