@<TRIPOS>MOLECULE
molecule
   71    76     1     0     0
SMALL
bcc


@<TRIPOS>ATOM
      1 C4           0.0000     0.0000     0.0000 ca         1 58Q       0.549600
      2 C5           1.3970     0.0000     0.0000 ca         1 58Q      -0.403400
      3 C6           2.0530     0.0000     1.2580 ca         1 58Q       0.803200
      4 N1           1.3210     0.0010     2.3620 nb         1 58Q      -0.811000
      5 N3          -0.6520    -0.0030     1.1690 nb         1 58Q      -0.776000
      6 FAD          0.2100    -2.0270    -4.1770 f          1 58Q      -0.223300
      7 CBP          1.4760    -1.4490    -4.2730 c3         1 58Q       0.616900
      8 FAE          2.4890    -2.1080    -3.5700 f          1 58Q      -0.223300
      9 FAF          1.7800    -1.4500    -5.6390 f          1 58Q      -0.223300
     10 CBE          1.0390    -0.0040    -2.3060 cc         1 58Q      -0.091600
     11 SBA         -0.5900    -0.0020    -1.6570 ss         1 58Q      -0.121900
     12 CAL          1.9410    -0.0020    -1.3440 cd         1 58Q      -0.066200
     13 C2           0.0010     0.0020     2.3090 ca         1 58Q       0.738900
     14 NAX          3.4340    -0.0000     1.3310 nu         1 58Q      -0.852900
     15 CBM          4.0990     0.0010     2.6360 c3         1 58Q       0.318500
     16 CAO          5.4960    -0.6100     2.5000 c3         1 58Q      -0.418400
     17 CAQ          6.2080    -0.5500     3.8540 c3         1 58Q       0.168300
     18 CAN          4.2260     1.4400     3.1440 c3         1 58Q      -0.418400
     19 CAP          4.9750     1.4400     4.4800 c3         1 58Q       0.168300
     20 NBN          6.3060     0.8460     4.2950 n3         1 58Q      -0.804600
     21 CAR          7.1050     0.9550     5.5230 c3         1 58Q       0.193100
     22 CBH          8.5320     0.5650     5.2310 ca         1 58Q      -0.105300
     23 CBC          8.9160    -0.7370     5.3590 ca         1 58Q      -0.000300
     24 CAB          7.9180    -1.7800     5.7910 c3         1 58Q      -0.087800
     25 CBF          9.4440     1.5370     4.8260 ca         1 58Q       0.191100
     26 OAZ          9.0420     2.8290     4.6980 os         1 58Q      -0.336900
     27 CAA         10.0260     3.7760     4.2790 c3         1 58Q       0.095700
     28 CAM         10.7570     1.1980     4.5530 ca         1 58Q      -0.260000
     29 CBL         11.1690    -0.1240     4.6840 ca         1 58Q       0.022800
     30 CBI         10.2410    -1.1040     5.0880 ca         1 58Q      -0.169800
     31 CAK         10.9330    -2.3380     5.1270 cc         1 58Q      -0.118200
     32 CBD         12.2210    -2.1030     4.7600 cd         1 58Q       0.028200
     33 CAG         13.2530    -3.0920     4.6700 ch         1 58Q       0.227500
     34 NAC         14.0840    -3.8630     4.6080 n1         1 58Q      -0.360800
     35 NBO         12.3770    -0.7560     4.4900 na         1 58Q      -0.067400
     36 CAS         13.6190    -0.1090     4.0590 c3         1 58Q       0.131600
     37 CBB         14.3900     0.3540     5.2690 cd         1 58Q      -0.352600
     38 CAI         15.3120    -0.3640     5.9490 cc         1 58Q      -0.059300
     39 NAU         15.7670     0.4030     6.9620 na         1 58Q      -0.039600
     40 NAY         15.1020     1.6350     6.9020 nc         1 58Q      -0.509800
     41 CAJ         14.2810     1.6060     5.8840 cd         1 58Q       0.357200
     42 H1           2.1870     0.5540    -4.2110 hc         1 58Q       0.088200
     43 H2           0.4380     0.4420    -4.1100 hc         1 58Q       0.088200
     44 H3           2.9620     0.3440    -1.4490 ha         1 58Q       0.148000
     45 H4          -0.6710     0.0500     3.1570 h5         1 58Q       0.061100
     46 H5           4.0860    -0.0900     0.5770 hn         1 58Q       0.461800
     47 H6           3.5190    -0.5800     3.3440 h1         1 58Q       0.072700
     48 H7           6.2210    -0.1850     1.8150 hc         1 58Q       0.161700
     49 H8           6.0440    -0.3750     3.4050 hc         1 58Q       0.161700
     50 H9           5.9600    -1.2360     4.6550 h1         1 58Q       0.066200
     51 H10          7.2120    -0.9120     3.6660 h1         1 58Q       0.066200
     52 H11          4.3800     1.4900     4.2160 hc         1 58Q       0.161700
     53 H12          4.5740     2.2430     2.5060 hc         1 58Q       0.161700
     54 H13          5.1710     2.2600     5.1600 h1         1 58Q       0.066200
     55 H14          4.4310     0.9850     5.2990 h1         1 58Q       0.066200
     56 H16          6.6420     1.9220     5.6820 h1         1 58Q       0.040200
     57 H17          6.3800     0.5890     6.2400 h1         1 58Q       0.040200
     58 H18          7.7500    -2.4320     4.9420 hc         1 58Q       0.069033
     59 H19          8.6900    -2.1250     6.4680 hc         1 58Q       0.069033
     60 H20          6.9150    -1.4160     5.9770 hc         1 58Q       0.069033
     61 H21         10.5000     4.1230     5.1900 h1         1 58Q       0.071033
     62 H22         10.3010     3.4350     3.2880 h1         1 58Q       0.071033
     63 H23          9.1720     4.4090     4.0700 h1         1 58Q       0.071033
     64 H24         11.5270     1.9520     4.4460 ha         1 58Q       0.136000
     65 H25         10.4360    -3.2230     5.5040 ha         1 58Q       0.163000
     66 H26         13.7820    -0.8870     3.3230 h1         1 58Q       0.074700
     67 H27         13.2940     0.7960     3.5600 h1         1 58Q       0.074700
     68 H28         15.7650    -1.2700     5.5650 h4         1 58Q       0.182000
     69 H29         16.4550     0.2950     7.6810 hn         1 58Q       0.341700
     70 H30         13.6130     2.3160     5.4110 h4         1 58Q       0.049100
     71 CAT          1.3670    -0.0050    -3.7780 c3         1 58Q      -0.060200
@<TRIPOS>BOND
     1    19    18 1
     2    19    20 1
     3    18    15 1
     4    21    20 1
     5    21    22 1
     6    26    27 1
     7    26    25 1
     8    20    17 1
     9     9     7 1
    10    22    25 ar
    11    22    23 ar
    12    25    28 ar
    13    15    14 1
    14    15    16 1
    15    39    40 1
    16    39    38 1
    17    40    41 2
    18     4    13 ar
    19     4     3 ar
    20    24    23 1
    21    13     5 ar
    22    14     3 1
    23    23    30 ar
    24     8     7 1
    25    17    16 1
    26     3     2 ar
    27    28    29 ar
    28    38    37 2
    29     7     6 1
    30     7    71 1
    31     5     1 ar
    32    41    37 1
    33     2     1 ar
    34     2    12 1
    35     1    11 1
    36    30    29 ar
    37    30    31 1
    38    29    35 1
    39    12    10 2
    40    37    36 1
    41    11    10 1
    42    10    71 1
    43    31    32 2
    44    35    36 1
    45    35    32 1
    46    32    33 1
    47    33    34 3
    48    71    42 1
    49    71    43 1
    50    12    44 1
    51    13    45 1
    52    14    46 1
    53    15    47 1
    54    16    48 1
    55    16    49 1
    56    17    50 1
    57    17    51 1
    58    18    52 1
    59    18    53 1
    60    19    54 1
    61    19    55 1
    62    21    56 1
    63    21    57 1
    64    24    58 1
    65    24    59 1
    66    24    60 1
    67    27    61 1
    68    27    62 1
    69    27    63 1
    70    28    64 1
    71    31    65 1
    72    36    66 1
    73    36    67 1
    74    38    68 1
    75    39    69 1
    76    41    70 1
@<TRIPOS>SUBSTRUCTURE
     1 58Q         1 TEMP              0 ****  ****    0 ROOT
