@<TRIPOS>MOLECULE
molecule
   62    66     1     0     0
SMALL
bcc


@<TRIPOS>ATOM
      1 C4           0.0000     0.0000     0.0000 ca         1 58R       0.529600
      2 C5           1.3980     0.0000     0.0000 ca         1 58R      -0.331400
      3 C6           2.0540     0.0000     1.2570 ca         1 58R       0.705200
      4 N1           1.3240    -0.0010     2.3620 nb         1 58R      -0.853000
      5 N3          -0.6510    -0.0050     1.1700 nb         1 58R      -0.738000
      6 FAD          0.4500    -2.1770    -3.5820 f          1 58R      -0.222633
      7 CBK          1.4720    -1.4430    -4.2760 c3         1 58R       0.603900
      8 FAE          2.4860    -2.1020    -3.5750 f          1 58R      -0.222633
      9 FAF          1.7740    -1.4430    -5.6420 f          1 58R      -0.222633
     10 CBA          1.0370    -0.0000    -2.3060 cc         1 58R      -0.055600
     11 SAX         -0.5910    -0.0010    -1.6550 ss         1 58R      -0.105900
     12 CAM          1.9400    -0.0000    -1.3460 cd         1 58R      -0.051200
     13 C2           0.0030    -0.0010     2.3090 ca         1 58R       0.722900
     14 NAW          3.4360    -0.0000     1.3280 nu         1 58R      -0.939900
     15 CBH          4.1020     0.0000     2.6330 c3         1 58R       0.138500
     16 CAO          5.4990    -0.6100     2.4930 c3         1 58R      -0.072400
     17 CAQ          6.2130    -0.5520     3.8460 c3         1 58R       0.150300
     18 CAN          4.2300     1.4380     3.1420 c3         1 58R      -0.072400
     19 CAP          4.9800     1.4370     4.4770 c3         1 58R       0.150300
     20 NBI          6.3110     0.8440     4.2900 n3         1 58R      -0.750600
     21 CAS          7.1110     0.9520     5.5170 c3         1 58R       0.184100
     22 CAZ          8.5370     0.5630     5.2210 ca         1 58R      -0.043300
     23 CAK          8.9220    -0.7400     5.3480 ca         1 58R      -0.082000
     24 CAI          9.4460     1.5330     4.8180 ca         1 58R      -0.102000
     25 CAJ         10.7530     1.1990     4.5440 ca         1 58R      -0.274000
     26 CBG         11.1720    -0.1220     4.6700 ca         1 58R      -0.020200
     27 CBD         10.2460    -1.1050     5.0750 ca         1 58R      -0.114800
     28 CAL         10.9440    -2.3370     5.1100 cc         1 58R      -0.075200
     29 CBB         12.2300    -2.0960     4.7410 cd         1 58R       0.035200
     30 CAG         13.2650    -3.0820     4.6490 ch         1 58R       0.195500
     31 NAA         14.0760    -3.8720     4.5620 n1         1 58R      -0.312800
     32 N           12.3790    -0.7510     4.4730 na         1 58R      -0.057400
     33 CA          13.6190    -0.1000     4.0400 c3         1 58R      -0.004700
     34 C           14.3910     0.3630     5.2490 c          1 58R       0.492100
     35 O           13.9490     0.1690     6.3620 o          1 58R      -0.357100
     36 NAB         15.5720     0.9930     5.0920 nz         1 58R      -0.705400
     37 H1           1.7300     0.6230    -4.5850 hc         1 58R       0.088200
     38 H2           0.3110     0.2150    -3.9310 hc         1 58R       0.088200
     39 H3           2.8980     0.4910    -1.4720 ha         1 58R       0.167000
     40 H4          -0.5430     0.4140     3.1470 h5         1 58R       0.062100
     41 H5           3.9750    -0.4300     2.0530 hn         1 58R       0.540800
     42 H6           3.5240    -0.5820     3.3400 h1         1 58R       0.075700
     43 H7           6.2650    -0.5550     1.7290 hc         1 58R       0.072450
     44 H8           4.9050    -1.5090     2.3790 hc         1 58R       0.072450
     45 H9           5.8650    -0.8620     4.8240 h1         1 58R       0.051200
     46 H10          7.1170    -1.1370     3.7270 h1         1 58R       0.051200
     47 H11          3.2750     1.8980     3.3630 hc         1 58R       0.072450
     48 H12          4.6140     2.1390     2.4100 hc         1 58R       0.072450
     49 H13          5.3610     2.4200     4.7250 h1         1 58R       0.051200
     50 H14          4.4340     0.8200     5.1800 h1         1 58R       0.051200
     51 H16          6.8380     1.9320     5.8900 h1         1 58R       0.042200
     52 H17          6.6310     0.4860     6.3680 h1         1 58R       0.042200
     53 H18          8.5980    -0.9060     6.3680 ha         1 58R       0.166000
     54 H19          9.7120     2.2340     5.6000 ha         1 58R       0.178000
     55 H20         10.6820     1.9190     3.7380 ha         1 58R       0.211000
     56 H21         10.2910    -3.1870     5.2690 ha         1 58R       0.194000
     57 H22         13.4790     0.7920     3.4420 h1         1 58R       0.106700
     58 H23         14.1720    -0.7200     3.3450 h1         1 58R       0.106700
     59 H24         16.5220     0.7930     4.8470 hn         1 58R       0.467133
     60 H25         15.5780     1.6220     5.8710 hn         1 58R       0.467133
     61 CAT          1.3620     0.0000    -3.7790 c3         1 58R      -0.081200
     62 HAB3        15.4920     1.7180     4.4070 hn         1 58R       0.467133
@<TRIPOS>BOND
     1    19    18 1
     2    19    20 1
     3    18    15 1
     4    21    20 1
     5    21    22 1
     6    20    17 1
     7     9     7 1
     8    22    24 ar
     9    22    23 ar
    10    15    14 1
    11    15    16 1
    12    24    25 ar
    13     4    13 ar
    14     4     3 ar
    15     8     7 1
    16    13     5 ar
    17    14     3 1
    18    23    27 ar
    19     3     2 ar
    20     7     6 1
    21     7    61 1
    22    17    16 1
    23     5     1 ar
    24    25    26 ar
    25     2     1 ar
    26     2    12 1
    27    35    34 2
    28     1    11 1
    29    12    10 2
    30    27    26 ar
    31    27    28 1
    32    26    32 1
    33    36    34 1
    34    34    33 1
    35    10    11 1
    36    10    61 1
    37    28    29 2
    38    32    29 1
    39    32    33 1
    40    29    30 1
    41    30    31 3
    42    61    37 1
    43    61    38 1
    44    12    39 1
    45    13    40 1
    46    14    41 1
    47    15    42 1
    48    16    43 1
    49    16    44 1
    50    17    45 1
    51    17    46 1
    52    18    47 1
    53    18    48 1
    54    19    49 1
    55    19    50 1
    56    21    51 1
    57    21    52 1
    58    23    53 1
    59    24    54 1
    60    25    55 1
    61    28    56 1
    62    33    57 1
    63    33    58 1
    64    36    59 1
    65    36    60 1
    66    62    36 1
@<TRIPOS>SUBSTRUCTURE
     1 58R         1 TEMP              0 ****  ****    0 ROOT
