@<TRIPOS>MOLECULE
58R
   62    67     1     0     0
SMALL
bcc


@<TRIPOS>ATOM
      1 C4           0.0000     0.0000     0.0000 c2         1 58R      -0.115000
      2 C5           1.3980     0.0000     0.0000 c2         1 58R      -0.183000
      3 C6           2.0540     0.0000     1.2570 c2         1 58R       0.131000
      4 N1           1.3240    -0.0010     2.3620 n2         1 58R      -0.216000
      5 N3          -0.6510    -0.0050     1.1700 n2         1 58R      -0.085000
      6 FAD          0.4500    -2.1770    -3.5820 f          1 58R      -0.139333
      7 CBK          1.4720    -1.4430    -4.2760 c3         1 58R       0.366000
      8 FAE          2.4860    -2.1020    -3.5750 f          1 58R      -0.139333
      9 FAF          1.7740    -1.4430    -5.6420 f          1 58R      -0.139333
     10 CBA          1.0370    -0.0000    -2.3060 c2         1 58R      -0.234000
     11 SAX         -0.5910    -0.0010    -1.6550 ss         1 58R       0.318000
     12 CAM          1.9400    -0.0000    -1.3460 c2         1 58R      -0.033000
     13 C2           0.0030    -0.0010     2.3090 c2         1 58R       0.011000
     14 NAW          3.4360    -0.0000     1.3280 nu         1 58R      -0.318000
     15 CBH          4.1020     0.0000     2.6330 DU         1 58R      -0.005000
     16 CAO          5.4990    -0.6100     2.4930 c3         1 58R      -0.107500
     17 CAQ          6.2130    -0.5520     3.8460 c3         1 58R      -0.097500
     18 CAN          4.2300     1.4380     3.1420 c3         1 58R      -0.107500
     19 CAP          4.9800     1.4370     4.4770 c3         1 58R      -0.097500
     20 NBI          6.3110     0.8440     4.2900 n3         1 58R      -0.087000
     21 CAS          7.1110     0.9520     5.5170 c3         1 58R      -0.055000
     22 CAZ          8.5370     0.5630     5.2210 ca         1 58R      -0.037000
     23 CAK          8.9220    -0.7400     5.3480 ca         1 58R      -0.051000
     24 CAI          9.4460     1.5330     4.8180 ca         1 58R      -0.088000
     25 CAJ         10.7530     1.1990     4.5440 ca         1 58R      -0.249000
     26 CBG         11.1720    -0.1220     4.6700 ca         1 58R      -0.149000
     27 CBD         10.2460    -1.1050     5.0750 ca         1 58R      -0.098000
     28 CAL         10.9440    -2.3370     5.1100 c2         1 58R      -0.057000
     29 CBB         12.2300    -2.0960     4.7410 c2         1 58R      -0.093000
     30 CAG         13.2650    -3.0820     4.6490 c1         1 58R      -0.110000
     31 NAA         14.0760    -3.8720     4.5620 n1         1 58R      -0.005000
     32 N           12.3790    -0.7510     4.4730 na         1 58R       0.317000
     33 CA          13.6190    -0.1000     4.0400 c3         1 58R      -0.095000
     34 C           14.3910     0.3630     5.2490 c2         1 58R       0.033000
     35 O           13.9490     0.1690     6.3620 o          1 58R      -0.125000
     36 NAB         15.5720     0.9930     5.0920 nz         1 58R       0.766000
     37 H1           1.7300     0.6230    -4.5850 hc         1 58R       0.102000
     38 H2           0.3110     0.2150    -3.9310 hc         1 58R       0.102000
     39 H3           2.8980     0.4910    -1.4720 ha         1 58R       0.138000
     40 H4          -0.5430     0.4140     3.1470 h5         1 58R       0.139000
     41 H5           3.9750    -0.4300     2.0530 DU         1 58R       0.268000
     42 H6           3.5240    -0.5820     3.3400 ha         1 58R       0.085000
     43 H7           6.2650    -0.5550     1.7290 hc         1 58R       0.077500
     44 H8           4.9050    -1.5090     2.3790 hc         1 58R       0.077500
     45 H9           5.8650    -0.8620     4.8240 h1         1 58R       0.064250
     46 H10          7.1170    -1.1370     3.7270 h1         1 58R       0.064250
     47 H11          3.2750     1.8980     3.3630 hc         1 58R       0.077500
     48 H12          4.6140     2.1390     2.4100 hc         1 58R       0.077500
     49 H13          5.3610     2.4200     4.7250 h1         1 58R       0.064250
     50 H14          4.4340     0.8200     5.1800 h1         1 58R       0.064250
     51 H16          6.8380     1.9320     5.8900 h1         1 58R       0.052500
     52 H17          6.6310     0.4860     6.3680 h1         1 58R       0.052500
     53 H18          8.5980    -0.9060     6.3680 ha         1 58R       0.135000
     54 H19          9.7120     2.2340     5.6000 ha         1 58R       0.151000
     55 H20         10.6820     1.9190     3.7380 ha         1 58R       0.193000
     56 H21         10.2910    -3.1870     5.2690 ha         1 58R       0.159000
     57 H22         13.4790     0.7920     3.4420 h1         1 58R       0.107500
     58 H23         14.1720    -0.7200     3.3450 h1         1 58R       0.107500
     59 H24         16.5220     0.7930     4.8470 hn         1 58R       0.044333
     60 H25         15.5780     1.6220     5.8710 hn         1 58R       0.044333
     61 CAT          1.3620     0.0000    -3.7790 c3         1 58R      -0.120000
     62 HAB3        15.4920     1.7180     4.4070 hn         1 58R       0.044333
@<TRIPOS>BOND
     1     1     2 1   
     2     1     5 1   
     3     1    11 1   
     4     2     3 1   
     5     2    12 1   
     6     3     4 1   
     7     3    14 1   
     8     4    13 1   
     9     5    13 1   
    10     6     7 1   
    11     7     8 1   
    12     7     9 1   
    13     7    61 1   
    14    10    11 1   
    15    10    12 1   
    16    10    61 1   
    17    12    39 1   
    18    13    40 1   
    19    14    15 1   
    20    14    41 1   
    21    15    16 1   
    22    15    18 1   
    23    15    41 1   
    24    15    42 1   
    25    16    17 1   
    26    16    43 1   
    27    16    44 1   
    28    17    20 1   
    29    17    45 1   
    30    17    46 1   
    31    18    19 1   
    32    18    47 1   
    33    18    48 1   
    34    19    20 1   
    35    19    49 1   
    36    19    50 1   
    37    20    21 1   
    38    21    22 1   
    39    21    51 1   
    40    21    52 1   
    41    22    23 1   
    42    22    24 1   
    43    23    27 1   
    44    23    53 1   
    45    24    25 1   
    46    24    54 1   
    47    25    26 1   
    48    25    55 1   
    49    26    27 1   
    50    26    32 1   
    51    27    28 1   
    52    28    29 1   
    53    28    56 1   
    54    29    30 1   
    55    29    32 1   
    56    30    31 1   
    57    32    33 1   
    58    33    34 1   
    59    33    57 1   
    60    33    58 1   
    61    34    35 1   
    62    34    36 1   
    63    36    59 1   
    64    36    60 1   
    65    36    62 1   
    66    37    61 1   
    67    38    61 1   
@<TRIPOS>SUBSTRUCTURE
     1 58R         1 TEMP              0 ****  ****    0 ROOT
