@<TRIPOS>MOLECULE
molecule
   22    21     1     0     0
SMALL
bcc


@<TRIPOS>ATOM
      1 O12          0.0000     0.0000     0.0000 o          1 58U      -0.810300
      2 C11          1.3460     0.0000     0.0000 c          1 58U       0.806600
      3 O13          1.9520     0.0000     1.0500 o          1 58U      -0.810300
      4 C3           2.0910    -0.0010    -1.2910 c          1 58U       0.474100
      5 C5           5.6090     0.1230    -2.7360 c          1 58U       0.576100
      6 C6           6.3070     0.8010    -3.8860 c3         1 58U      -0.313400
      7 C7           7.7950     0.7930    -3.6460 c          1 58U       0.590900
      8 O14          8.5390     0.3260    -4.4750 o          1 58U      -0.539100
      9 C2           3.5970    -0.0000    -1.2910 c3         1 58U      -0.175400
     10 C1           4.1080    -0.0010    -2.7340 c3         1 58U      -0.160700
     11 C10          3.7020    -1.3090    -3.4170 c3         1 58U      -0.073100
     12 O16          1.4870    -0.0010    -2.3370 o          1 58U      -0.555100
     13 H2           6.0870     0.2720    -4.8050 hc         1 58U       0.087200
     14 H3           5.9600     1.8240    -3.9670 hc         1 58U       0.087200
     15 H4           8.2000     1.2430    -2.7480 h4         1 58U       0.007200
     16 H5           3.9580     0.8850    -0.7810 hc         1 58U       0.074700
     17 H6           3.9590    -0.8840    -0.7800 hc         1 58U       0.074700
     18 H7           3.6760     0.8350    -3.2700 hc         1 58U       0.067700
     19 H8           4.4880    -1.6210    -4.0950 hc         1 58U       0.041033
     20 H9           2.7850    -1.1570    -3.9740 hc         1 58U       0.041033
     21 H10          3.5460    -2.0750    -2.6670 hc         1 58U       0.041033
     22 O4           6.2530    -0.3220    -1.8160 o          1 58U      -0.531100
@<TRIPOS>BOND
     1     3     2 1   
     2     1     2 1   
     3     2     4 1   
     4     4     9 1   
     5     4    12 2   
     6     9    10 1   
     7    10    11 1   
     8    10     5 1   
     9    22     5 2   
    10     5     6 1   
    11     6     7 1   
    12     7     8 2   
    13     6    13 1   
    14     6    14 1   
    15     7    15 1   
    16     9    16 1   
    17     9    17 1   
    18    10    18 1   
    19    11    19 1   
    20    11    20 1   
    21    11    21 1   
@<TRIPOS>SUBSTRUCTURE
     1 58U         1 TEMP              0 ****  ****    0 ROOT
