@<TRIPOS>MOLECULE
58V
   55    60     1     0     0
SMALL
bcc


@<TRIPOS>ATOM
      1 C4           0.0000     0.0000     0.0000 ca         1 58V      -0.072000
      2 C5           1.3760     0.0000     0.0000 ca         1 58V      -0.066000
      3 C25          1.3830     0.0030     2.4130 ca         1 58V      -0.108000
      4 C24          9.9950     1.9270    -0.1410 cc         1 58V      -0.256300
      5 C21          8.6300     2.8950    -1.6280 cd         1 58V       0.384200
      6 C18          7.5770     0.5390     1.2230 cc         1 58V       0.020600
      7 C20          8.6840     2.0360    -0.5110 cd         1 58V      -0.223100
      8 C3          -0.6980     0.0070     1.2100 ca         1 58V      -0.132600
      9 C6           2.0740     0.0000     1.2050 ca         1 58V      -0.069400
     10 C26          0.0050     0.0090     2.4210 ca         1 58V       0.004400
     11 C19          7.5320     1.3740     0.1410 cd         1 58V      -0.288300
     12 C16          5.4950     0.7020     0.6470 cd         1 58V      -0.496600
     13 C14          5.5640     2.1600    -1.2180 cd         1 58V      -0.572600
     14 C8           4.0890     0.6330     0.4890 cd         1 58V       0.550200
     15 C10          4.2240     2.0620    -1.3270 cc         1 58V       0.561600
     16 C2          -2.1730     0.0150     1.2130 c          1 58V       0.608700
     17 C12          1.9940     2.9850    -2.2690 cx         1 58V      -0.062400
     18 C13          2.6450     4.1100    -1.4610 cx         1 58V      -0.062400
     19 C29         -4.3190    -0.8660     0.4100 c3         1 58V       0.002000
     20 C33         -2.1520    -2.0400    -0.1280 c3         1 58V       0.002000
     21 C30         -4.8910    -2.2330     0.8030 c3         1 58V       0.199400
     22 C32         -2.8280    -3.3500     0.2900 c3         1 58V       0.199400
     23 C11          3.5180     3.0430    -2.1280 cx         1 58V      -0.186000
     24 N23         10.7230     2.6880    -0.9840 na         1 58V       0.457400
     25 N9           3.5100     1.3090    -0.4840 nc         1 58V      -0.847000
     26 N22          9.8480     3.2800    -1.9040 nc         1 58V      -0.656800
     27 N15          6.2200     1.4780    -0.2250 na         1 58V       0.738700
     28 N17          6.3360     0.1500     1.5060 nc         1 58V      -0.230600
     29 N28         -2.8530    -0.9250     0.5270 n          1 58V      -0.146800
     30 N7           3.4650    -0.0060     1.2010 nu         1 58V      -0.015300
     31 O1          -2.7760     0.8690     1.8350 o          1 58V      -0.628100
     32 O31         -4.2330    -3.2520     0.0450 os         1 58V      -0.404600
     33 Cl2         -0.8570     0.0110     3.9280 cl         1 58V       0.020600
     34 H1          -0.5420    -0.0010    -0.9380 ha         1 58V       0.118000
     35 H2           1.9170    -0.0040    -0.9390 ha         1 58V       0.156000
     36 H3           1.9290     0.0030     3.3480 ha         1 58V       0.124000
     37 H5           7.7350     3.1870    -2.1640 h4         1 58V       0.012100
     38 H6           8.4710     0.2440     1.7590 h4         1 58V       0.140000
     39 H7           6.0990     2.9170    -1.7790 h4         1 58V       0.161000
     40 H8           1.5000     2.2170    -1.6870 hc         1 58V       0.049950
     41 H9           1.6030     3.2720    -3.2380 hc         1 58V       0.049950
     42 H10          2.5480     4.0280    -0.3850 hc         1 58V       0.049950
     43 H11          2.6510     5.0830    -1.9360 hc         1 58V       0.049950
     44 H12         -4.5930    -0.6370    -0.6130 h1         1 58V       0.039950
     45 H13         -4.7060    -0.1040     1.0770 h1         1 58V       0.039950
     46 H14         -2.2130    -1.9270    -1.2040 h1         1 58V       0.039950
     47 H15         -1.1140    -2.0510     0.1840 h1         1 58V       0.039950
     48 H16         -4.7230    -2.4040     1.8590 h1         1 58V       0.016700
     49 H17         -5.9530    -2.2540     0.5910 h1         1 58V       0.016700
     50 H18         -2.4170    -4.1690    -0.2880 h1         1 58V       0.016700
     51 H19         -2.6570    -3.5230     1.3450 h1         1 58V       0.016700
     52 H20          4.0680     3.6050    -2.8730 hc         1 58V       0.059700
     53 H21         11.7160     2.8070    -0.9600 hn         1 58V       0.148700
     54 H22          3.9650    -0.5150     1.9030 hn         1 58V       0.285800
     55 H4          10.3800     1.3400     0.6840 h4         1 58V       0.149000
@<TRIPOS>BOND
     1     1     2 ar  
     2     1     8 ar  
     3     1    34 1   
     4     2     9 ar  
     5     2    35 1   
     6     3     9 ar  
     7     3    10 ar  
     8     3    36 1   
     9     4     7 2   
    10     4    24 1   
    11     4    55 1   
    12     5     7 1   
    13     5    26 2   
    14     5    37 1   
    15     6    11 2   
    16     6    28 1   
    17     6    38 1   
    18     7    11 1   
    19     8    10 ar  
    20     8    16 1   
    21     9    30 1   
    22    10    33 1   
    23    11    27 1   
    24    12    14 1   
    25    12    27 1   
    26    12    28 2   
    27    13    15 2   
    28    13    27 1   
    29    13    39 1   
    30    14    25 2   
    31    14    30 1   
    32    15    23 1   
    33    15    25 1   
    34    16    29 1   
    35    16    31 2   
    36    17    18 1   
    37    17    23 1   
    38    17    40 1   
    39    17    41 1   
    40    18    23 1   
    41    18    42 1   
    42    18    43 1   
    43    19    21 1   
    44    19    29 1   
    45    19    44 1   
    46    19    45 1   
    47    20    22 1   
    48    20    29 1   
    49    20    46 1   
    50    20    47 1   
    51    21    32 1   
    52    21    48 1   
    53    21    49 1   
    54    22    32 1   
    55    22    50 1   
    56    22    51 1   
    57    23    52 1   
    58    24    26 1   
    59    24    53 1   
    60    30    54 1   
@<TRIPOS>SUBSTRUCTURE
     1 58V         1 TEMP              0 ****  ****    0 ROOT
