@<TRIPOS>MOLECULE
molecule
   38    40     1     0     0
SMALL
bcc


@<TRIPOS>ATOM
      1 C10          0.0000     0.0000     0.0000 ca         1 58W      -0.121000
      2 C11          1.3820     0.0000     0.0000 ca         1 58W      -0.079300
      3 C12          3.1590     1.1410    -1.4270 cy         1 58W      -0.079400
      4 C13          1.3710     0.6670    -2.4590 cy         1 58W      -0.079400
      5 C14          2.7130     1.2780    -2.8920 cy         1 58W      -0.102400
      6 C15          2.0730     0.0000     1.1970 ca         1 58W      -0.121000
      7 C16          1.3820     0.0010     2.3940 ca         1 58W      -0.125500
      8 C01          2.3900    -3.6270    -2.3020 ca         1 58W       0.042600
      9 C02          3.6900    -3.9650    -1.9570 ca         1 58W      -0.117000
     10 C03          4.2040    -5.1970    -2.3200 ca         1 58W       0.011400
     11 C04          3.4190    -6.0960    -3.0290 ca         1 58W       0.108100
     12 C05          2.1190    -5.7620    -3.3750 ca         1 58W      -0.183000
     13 C06          1.6020    -4.5290    -3.0130 ca         1 58W       0.083100
     14 C07         -0.6920     0.0070     1.1960 ca         1 58W      -0.125500
     15 C08          2.6980    -1.3550    -1.6550 c          1 58W       0.692100
     16 C09          2.1360    -0.0020    -1.3050 cy         1 58W      -0.123700
     17 C           -0.0010     0.0010     2.3940 ca         1 58W      -0.125000
     18 N            1.8660    -2.3790    -1.9290 ns         1 58W      -0.454100
     19 O01          3.8990    -1.5220    -1.6900 o          1 58W      -0.596100
     20 O02          3.9270    -7.3070    -3.3840 oh         1 58W      -0.509100
     21 O            0.3280    -4.1990    -3.3520 oh         1 58W      -0.515100
     22 Cl           5.8320    -5.6180    -1.8890 cl         1 58W      -0.084400
     23 H1          -0.5410     0.0030    -0.9380 ha         1 58W       0.136000
     24 H2           2.9030     2.0040    -0.8240 hc         1 58W       0.067700
     25 H3           4.1840     0.8060    -1.3250 hc         1 58W       0.067700
     26 H4           0.9780    -0.0450    -3.1750 hc         1 58W       0.067700
     27 H5           0.6570     1.4080    -2.1200 hc         1 58W       0.067700
     28 H6           2.6250     2.3080    -3.2140 hc         1 58W       0.062200
     29 H7           3.2710     0.6400    -3.5660 hc         1 58W       0.062200
     30 H8           3.1560     0.0000     1.1980 ha         1 58W       0.136000
     31 H9           1.9230    -0.0020     3.3330 ha         1 58W       0.132500
     32 H10          4.3040    -3.2640    -1.4040 ha         1 58W       0.205000
     33 H11          1.5080    -6.4650    -3.9280 ha         1 58W       0.153000
     34 H12         -1.7750     0.0070     1.1960 ha         1 58W       0.132500
     35 H13         -0.5430     0.0040     3.3320 ha         1 58W       0.132000
     36 H14          0.8780    -2.2640    -1.8200 hn         1 58W       0.339500
     37 H15          4.1950    -7.2820    -4.2880 ho         1 58W       0.423000
     38 H16         -0.2730    -4.7960    -2.9380 ho         1 58W       0.421000
@<TRIPOS>BOND
     1    14     1 ar
     2    14    17 ar
     3     1     2 ar
     4     3     5 1
     5     3    16 1
     6    21    13 1
     7    17     7 ar
     8     5     4 1
     9     2    16 1
    10     2     6 ar
    11    18     8 1
    12    18    15 1
    13    16    15 1
    14    16     4 1
    15    13     8 ar
    16    13    12 ar
    17     8     9 ar
    18     7     6 ar
    19    15    19 2
    20    12    11 ar
    21     9    10 ar
    22    11    10 ar
    23    11    20 1
    24    10    22 1
    25     1    23 1
    26     3    24 1
    27     3    25 1
    28     4    26 1
    29     4    27 1
    30     5    28 1
    31     5    29 1
    32     6    30 1
    33     7    31 1
    34     9    32 1
    35    12    33 1
    36    14    34 1
    37    17    35 1
    38    18    36 1
    39    20    37 1
    40    21    38 1
@<TRIPOS>SUBSTRUCTURE
     1 58W         1 TEMP              0 ****  ****    0 ROOT
