@<TRIPOS>MOLECULE
58W
   38    40     1     0     0
SMALL
bcc


@<TRIPOS>ATOM
      1 C10          0.0000     0.0000     0.0000 ca         1 58W      -0.099000
      2 C11          1.3820     0.0000     0.0000 ca         1 58W      -0.083300
      3 C12          3.1590     1.1410    -1.4270 cy         1 58W      -0.029900
      4 C13          1.3710     0.6670    -2.4590 cy         1 58W      -0.029900
      5 C14          2.7130     1.2780    -2.8920 cy         1 58W      -0.044400
      6 C15          2.0730     0.0000     1.1970 ca         1 58W      -0.099000
      7 C16          1.3820     0.0010     2.3940 ca         1 58W      -0.097000
      8 C01          2.3900    -3.6270    -2.3020 ca         1 58W      -0.123400
      9 C02          3.6900    -3.9650    -1.9570 ca         1 58W      -0.097000
     10 C03          4.2040    -5.1970    -2.3200 ca         1 58W      -0.068600
     11 C04          3.4190    -6.0960    -3.0290 ca         1 58W       0.135100
     12 C05          2.1190    -5.7620    -3.3750 ca         1 58W      -0.180000
     13 C06          1.6020    -4.5290    -3.0130 ca         1 58W       0.111100
     14 C07         -0.6920     0.0070     1.1960 ca         1 58W      -0.097000
     15 C08          2.6980    -1.3550    -1.6550 c          1 58W       0.594100
     16 C09          2.1360    -0.0020    -1.3050 cy         1 58W      -0.116700
     17 C           -0.0010     0.0010     2.3940 ca         1 58W      -0.100000
     18 N            1.8660    -2.3790    -1.9290 ns         1 58W      -0.000100
     19 O01          3.8990    -1.5220    -1.6900 o          1 58W      -0.636100
     20 O02          3.9270    -7.3070    -3.3840 oh         1 58W      -0.492100
     21 O            0.3280    -4.1990    -3.3520 oh         1 58W      -0.496100
     22 Cl           5.8320    -5.6180    -1.8890 cl         1 58W      -0.001400
     23 H1          -0.5410     0.0030    -0.9380 ha         1 58W       0.113000
     24 H2           2.9030     2.0040    -0.8240 hc         1 58W       0.037450
     25 H3           4.1840     0.8060    -1.3250 hc         1 58W       0.037450
     26 H4           0.9780    -0.0450    -3.1750 hc         1 58W       0.037450
     27 H5           0.6570     1.4080    -2.1200 hc         1 58W       0.037450
     28 H6           2.6250     2.3080    -3.2140 hc         1 58W       0.030700
     29 H7           3.2710     0.6400    -3.5660 hc         1 58W       0.030700
     30 H8           3.1560     0.0000     1.1980 ha         1 58W       0.113000
     31 H9           1.9230    -0.0020     3.3330 ha         1 58W       0.104000
     32 H10          4.3040    -3.2640    -1.4040 ha         1 58W       0.184000
     33 H11          1.5080    -6.4650    -3.9280 ha         1 58W       0.125000
     34 H12         -1.7750     0.0070     1.1960 ha         1 58W       0.104000
     35 H13         -0.5430     0.0040     3.3320 ha         1 58W       0.104000
     36 H14          0.8780    -2.2640    -1.8200 hn         1 58W       0.178500
     37 H15          4.1950    -7.2820    -4.2880 ho         1 58W       0.406000
     38 H16         -0.2730    -4.7960    -2.9380 ho         1 58W       0.405000
@<TRIPOS>BOND
     1     1     2 ar  
     2     1    14 ar  
     3     1    23 1   
     4     2     6 ar  
     5     2    16 1   
     6     3     5 1   
     7     3    16 1   
     8     3    24 1   
     9     3    25 1   
    10     4     5 1   
    11     4    16 1   
    12     4    26 1   
    13     4    27 1   
    14     5    28 1   
    15     5    29 1   
    16     6     7 ar  
    17     6    30 1   
    18     7    17 ar  
    19     7    31 1   
    20     8     9 ar  
    21     8    13 ar  
    22     8    18 1   
    23     9    10 ar  
    24     9    32 1   
    25    10    11 ar  
    26    10    22 1   
    27    11    12 ar  
    28    11    20 1   
    29    12    13 ar  
    30    12    33 1   
    31    13    21 1   
    32    14    17 ar  
    33    14    34 1   
    34    15    16 1   
    35    15    18 1   
    36    15    19 2   
    37    17    35 1   
    38    18    36 1   
    39    20    37 1   
    40    21    38 1   
@<TRIPOS>SUBSTRUCTURE
     1 58W         1 TEMP              0 ****  ****    0 ROOT
