@<TRIPOS>MOLECULE
58X
   27    26     1     0     0
SMALL
bcc


@<TRIPOS>ATOM
      1 CAA         0.4900    0.0020   -0.3540 c3        1 58X     -0.068400
      2 CAB         1.9440    0.0900   -0.0720 c2        1 58X     -0.118400
      3 CAC         2.4500   -0.2730    1.1180 c2        1 58X     -0.178200
      4 CAD         3.8870   -0.2020    1.4720 c3        1 58X     -0.038200
      5 CAE         4.2470    1.1550    2.0580 c3        1 58X     -0.037200
      6 CAF         2.7860    0.6060   -1.1790 c3        1 58X     -0.068400
      7 CAG         5.7120    1.2700    2.3090 c2        1 58X     -0.164400
      8 CAH         6.5790    1.7470    1.4060 ce        1 58X     -0.184200
      9 CAI         6.1540    0.8200    3.6540 c3        1 58X     -0.042900
     10 CAJ         6.2810    2.1980   -0.0040 c         1 58X      0.894800
     11 OAK         5.1770    2.7540   -0.2820 o         1 58X     -0.843300
     12 OAL         7.1920    2.0080   -0.8630 o         1 58X     -0.843300
     13 H1          0.3120   -0.6220   -1.2650 hc        1 58X      0.043200
     14 H2         -0.0730   -0.4490    0.4980 hc        1 58X      0.043200
     15 H3          0.0770    1.0240   -0.5480 hc        1 58X      0.043200
     16 H4          1.7840   -0.6390    1.9150 ha        1 58X      0.093000
     17 H5          4.1320   -1.0100    2.2120 hc        1 58X      0.040700
     18 H6          4.5210   -0.3760    0.5600 hc        1 58X      0.040700
     19 H7          3.6820    1.3080    3.0150 hc        1 58X      0.056700
     20 H8          3.9370    1.9600    1.3340 hc        1 58X      0.056700
     21 H9          2.1580    1.0590   -1.9840 hc        1 58X      0.043200
     22 H10         3.3830   -0.2280   -1.6270 hc        1 58X      0.043200
     23 H11         3.5140    1.3840   -0.8120 hc        1 58X      0.043200
     24 H12         7.6520    1.8080    1.6560 ha        1 58X      0.097000
     25 H13         7.2660    0.8510    3.7550 hc        1 58X      0.016033
     26 H14         5.8130   -0.2290    3.8420 hc        1 58X      0.016033
     27 H15         5.7120    1.4740    4.4470 hc        1 58X      0.016033
@<TRIPOS>BOND
     1    1    2 1   
     2    1   13 1   
     3    1   14 1   
     4    1   15 1   
     5    2    3 2   
     6    2    6 1   
     7    3    4 1   
     8    3   16 1   
     9    4    5 1   
    10    4   17 1   
    11    4   18 1   
    12    5    7 1   
    13    5   19 1   
    14    5   20 1   
    15    6   21 1   
    16    6   22 1   
    17    6   23 1   
    18    7    8 2   
    19    7    9 1   
    20    8   10 1   
    21    8   24 1   
    22    9   25 1   
    23    9   26 1   
    24    9   27 1   
    25   10   11 1   
    26   10   12 1   
@<TRIPOS>SUBSTRUCTURE
     1 58X         1 TEMP              0 ****  ****    0 ROOT
