@<TRIPOS>MOLECULE
molecule
   27    26     1     0     0
SMALL
bcc


@<TRIPOS>ATOM
      1 CAA          0.0000     0.0000     0.0000 c3         1 58X      -0.046400
      2 CAB          1.5060     0.0000     0.0000 c2         1 58X      -0.159400
      3 CAC          2.1610     0.0000     1.1340 c2         1 58X      -0.165200
      4 CAD          3.6610     0.1530     1.1380 c3         1 58X      -0.048200
      5 CAE          4.0510     1.3280     2.0380 c3         1 58X      -0.028200
      6 CAF          2.2610     0.0010    -1.3050 c3         1 58X      -0.046400
      7 CAG          5.5500     1.4800     2.0430 c2         1 58X      -0.168400
      8 CAH          6.1340     2.3370     1.2090 ce         1 58X      -0.188200
      9 CAI          6.3880     0.6640     2.9930 c3         1 58X      -0.017900
     10 CAJ          7.5960     2.3360     1.0580 c          1 58X       0.873800
     11 OAK          8.1980     3.2790     0.3070 o          1 58X      -0.848300
     12 OAL          8.2630     1.4850     1.6130 o          1 58X      -0.848300
     13 H1          -0.3610     0.5430     0.8650 hc         1 58X       0.035533
     14 H2          -0.3610     0.4780    -0.9030 hc         1 58X       0.035533
     15 H3          -0.3610    -1.0210     0.0370 hc         1 58X       0.035533
     16 H4           1.6180    -0.0000     2.0710 ha         1 58X       0.113000
     17 H5           4.1150    -0.7560     1.5140 hc         1 58X       0.053700
     18 H6           4.0070     0.3400     0.1290 hc         1 58X       0.053700
     19 H7           3.7040     1.1410     3.0470 hc         1 58X       0.029700
     20 H8           3.5970     2.2370     1.6620 hc         1 58X       0.029700
     21 H9           3.0100    -0.7810    -1.2900 hc         1 58X       0.035533
     22 H10          1.5710    -0.1760    -2.1210 hc         1 58X       0.035533
     23 H11          2.7440     0.9610    -1.4420 hc         1 58X       0.035533
     24 H12          5.5270     2.9230     0.5290 ha         1 58X       0.100000
     25 H13          6.9470    -0.0780     2.4350 hc         1 58X       0.033033
     26 H14          5.7430     0.1670     3.7080 hc         1 58X       0.033033
     27 H15          7.0760     1.3140     3.5190 hc         1 58X       0.033033
@<TRIPOS>BOND
     1     9     7 1   
     2     6     2 1   
     3    12    10 1   
     4     7     5 1   
     5     7     8 2   
     6     2     3 2   
     7     2     1 1   
     8     5     4 1   
     9     4     3 1   
    10    10     8 1   
    11    10    11 1   
    12     1    13 1   
    13     1    14 1   
    14     1    15 1   
    15     3    16 1   
    16     4    17 1   
    17     4    18 1   
    18     5    19 1   
    19     5    20 1   
    20     6    21 1   
    21     6    22 1   
    22     6    23 1   
    23     8    24 1   
    24     9    25 1   
    25     9    26 1   
    26     9    27 1   
@<TRIPOS>SUBSTRUCTURE
     1 58X         1 TEMP              0 ****  ****    0 ROOT
