@<TRIPOS>MOLECULE
58Y
   29    30     1     0     0
SMALL
bcc


@<TRIPOS>ATOM
      1 C1           0.0000     0.0000     0.0000 c3         1 58Y       0.338200
      2 C2           1.5450     0.0000     0.0000 c3         1 58Y       0.086500
      3 C3           2.0750     0.0000     1.4390 c3         1 58Y       0.123100
      4 C4           1.4060     1.1040     2.2560 c3         1 58Y       0.138100
      5 C5          -0.1070     0.8460     2.2600 c3         1 58Y       0.145100
      6 C6          -0.8110     1.9150     3.0970 c3         1 58Y       0.228400
      7 C7           1.1330    -2.4160    -0.3910 c3         1 58Y       0.250600
      8 C8           1.8510    -3.4490     0.4810 c3         1 58Y      -0.012100
      9 N2           2.0090    -1.2510    -0.6300 n7         1 58Y      -0.602200
     10 S1          -0.3270    -1.7370     0.4950 ss         1 58Y      -0.473200
     11 O3           3.4870     0.2170     1.4200 oh         1 58Y      -0.573800
     12 O4           1.6770     2.3750     1.6620 oh         1 58Y      -0.558800
     13 O5          -0.5660     0.9090     0.9100 os         1 58Y      -0.333600
     14 O6          -2.2020     1.6040     3.1930 oh         1 58Y      -0.579800
     15 H1          -0.3760     0.1830    -0.9990 h2         1 58Y       0.080700
     16 H2           1.9230     0.8580    -0.5420 h1         1 58Y       0.083700
     17 H3           1.8620    -0.9590     1.8960 h1         1 58Y       0.032700
     18 H4           1.7810     1.0820     3.2720 h1         1 58Y       0.007700
     19 H5          -0.3080    -0.1370     2.6680 h1         1 58Y       0.049700
     20 H6          -0.3770     1.9400     4.0900 h1         1 58Y      -0.003300
     21 H7          -0.6890     2.8820     2.6250 h1         1 58Y      -0.003300
     22 H8           0.8290    -2.8560    -1.3330 h2         1 58Y       0.068700
     23 H9           1.8110    -3.1370     1.5180 hc         1 58Y       0.017700
     24 H10          1.3640    -4.4110     0.3750 hc         1 58Y       0.017700
     25 H11          2.8850    -3.5300     0.1690 hc         1 58Y       0.017700
     26 H12          2.9350    -1.4600    -0.3150 hn         1 58Y       0.285800
     27 H14          3.8880    -0.2600     2.1290 ho         1 58Y       0.388000
     28 H15          2.2400     2.8740     2.2310 ho         1 58Y       0.390000
     29 H16         -2.6140     2.1900     3.8070 ho         1 58Y       0.389000
@<TRIPOS>BOND
     1     1     2 1   
     2     1    10 1   
     3     1    13 1   
     4     1    15 1   
     5     2     3 1   
     6     2     9 1   
     7     2    16 1   
     8     3     4 1   
     9     3    11 1   
    10     3    17 1   
    11     4     5 1   
    12     4    12 1   
    13     4    18 1   
    14     5     6 1   
    15     5    13 1   
    16     5    19 1   
    17     6    14 1   
    18     6    20 1   
    19     6    21 1   
    20     7     8 1   
    21     7     9 1   
    22     7    10 1   
    23     7    22 1   
    24     8    23 1   
    25     8    24 1   
    26     8    25 1   
    27     9    26 1   
    28    11    27 1   
    29    12    28 1   
    30    14    29 1   
@<TRIPOS>SUBSTRUCTURE
     1 58Y         1 TEMP              0 ****  ****    0 ROOT
