@<TRIPOS>MOLECULE
58Z
   40    42     1     0     0
SMALL
bcc


@<TRIPOS>ATOM
      1 O21          0.0000     0.0000     0.0000 o          1 58Z      -0.900800
      2 C19          1.2080     0.0000     0.0000 c          1 58Z       0.985600
      3 O20          1.8790     0.0030    -1.1630 o          1 58Z      -0.900800
      4 C16          1.9620     0.0000     1.3050 c3         1 58Z      -0.154700
      5 C15          0.9680     0.0050     2.4700 c3         1 58Z      -0.007400
      6 C14          1.7390     0.0670     3.7910 c3         1 58Z       0.139800
      7 C17          2.8420     1.2510     1.3870 c3         1 58Z      -0.007400
      8 C18          3.5570     1.2770     2.7390 c3         1 58Z       0.139800
      9 N13          2.5630     1.2830     3.8220 n3         1 58Z      -0.525600
     10 C12          3.2100     1.4470     5.1300 c3         1 58Z       0.149800
     11 C11          4.1280     2.6700     5.0940 c3         1 58Z       0.185400
     12 O10          3.3500     3.8430     4.8470 os         1 58Z      -0.275900
     13 C3           4.0190     5.0250     4.7850 ca         1 58Z       0.132100
     14 C2           5.4020     5.0500     4.9540 ca         1 58Z      -0.184000
     15 C4           3.3270     6.1950     4.5490 ca         1 58Z      -0.093000
     16 C5           4.0180     7.4070     4.4850 ca         1 58Z      -0.061800
     17 C7           3.6160     8.7970     4.2590 cc         1 58Z      -0.168200
     18 C8           4.7310     9.5420     4.3090 cd         1 58Z      -0.275100
     19 N9           5.8160     8.7430     4.5480 na         1 58Z       0.342600
     20 C6           5.4140     7.4290     4.6610 ca         1 58Z      -0.265200
     21 C1           6.0940     6.2380     4.8940 ca         1 58Z      -0.069000
     22 H16          2.5860    -0.8830     1.3680 hc         1 58Z       0.014700
     23 H15          0.3740    -0.9000     2.4410 hc         1 58Z       0.028450
     24 H15A         0.3220     0.8710     2.3880 hc         1 58Z       0.028450
     25 H14          2.3780    -0.8030     3.8760 h1         1 58Z      -0.005550
     26 H14A         1.0370     0.0880     4.6160 h1         1 58Z      -0.005550
     27 H17          2.2220     2.1340     1.2900 hc         1 58Z       0.028450
     28 H17A         3.5760     1.2290     0.5910 hc         1 58Z       0.028450
     29 H18          4.1840     0.3990     2.8310 h1         1 58Z      -0.005550
     30 H18A         4.1670     2.1700     2.8060 h1         1 58Z      -0.005550
     31 H12          2.4530     1.5870     5.8920 h1         1 58Z       0.006700
     32 H12A         3.7940     0.5640     5.3580 h1         1 58Z       0.006700
     33 H11          4.8600     2.5490     4.3050 h1         1 58Z       0.001700
     34 H11A         4.6370     2.7680     6.0460 h1         1 58Z       0.001700
     35 H2           5.9370     4.1260     5.1360 ha         1 58Z       0.117000
     36 H4           2.2440     6.1880     4.5200 ha         1 58Z       0.120000
     37 H7           2.6090     9.1560     4.0850 ha         1 58Z       0.127000
     38 H8           4.7670    10.6170     4.1790 h4         1 58Z       0.131000
     39 H1           7.1690     6.2460     5.0270 ha         1 58Z       0.091000
     40 HN9          6.7600     9.0640     4.6290 hn         1 58Z       0.106700
@<TRIPOS>BOND
     1     1     2 1   
     2     2     3 1   
     3     2     4 1   
     4     4     5 1   
     5     4     7 1   
     6     4    22 1   
     7     5     6 1   
     8     5    23 1   
     9     5    24 1   
    10     6     9 1   
    11     6    25 1   
    12     6    26 1   
    13     7     8 1   
    14     7    27 1   
    15     7    28 1   
    16     8     9 1   
    17     8    29 1   
    18     8    30 1   
    19     9    10 1   
    20    10    11 1   
    21    10    31 1   
    22    10    32 1   
    23    11    12 1   
    24    11    33 1   
    25    11    34 1   
    26    12    13 1   
    27    13    14 ar  
    28    13    15 ar  
    29    14    21 ar  
    30    14    35 1   
    31    15    16 ar  
    32    15    36 1   
    33    16    17 1   
    34    16    20 ar  
    35    17    18 2   
    36    17    37 1   
    37    18    19 1   
    38    18    38 1   
    39    19    20 1   
    40    19    40 1   
    41    20    21 ar  
    42    21    39 1   
@<TRIPOS>SUBSTRUCTURE
     1 58Z         1 TEMP              0 ****  ****    0 ROOT
