@<TRIPOS>MOLECULE
591
   47    50     1     0     0
SMALL
bcc


@<TRIPOS>ATOM
      1 C1           0.0000     0.0000     0.0000 c3         1 591      -0.007100
      2 N1           2.0180     0.0000     1.3820 na         1 591       0.520400
      3 O1           2.8640    -0.5490     6.2740 o          1 591      -0.534500
      4 C2           1.5300     0.0000     0.0000 c3         1 591      -0.016700
      5 N2           1.6760     0.9240     2.3780 nc         1 591      -0.611800
      6 C3           2.8730    -0.8940     1.9210 cc         1 591      -0.220300
      7 N3           3.1580    -2.7610     5.7240 n          1 591      -0.047300
      8 C4           3.0720    -0.5470     3.2140 cd         1 591      -0.375600
      9 N4           4.2000    -2.6500     3.7600 n2         1 591      -0.425900
     10 C5           2.3050     0.5940     3.4760 cd         1 591       0.417200
     11 C6           3.9540    -1.2670     4.2010 c3         1 591       0.208800
     12 N6           5.3640     4.5620     6.7120 nb         1 591      -0.615500
     13 C7           3.2540    -1.4280     5.5350 c          1 591       0.623500
     14 N7           7.6560     4.6470     6.4660 nb         1 591      -0.615500
     15 C8           3.7190    -3.4410     4.6700 c2         1 591       0.065800
     16 C10          5.2570    -0.5300     4.3780 ca         1 591      -0.112300
     17 C11          6.4420    -1.1110     3.9620 ca         1 591      -0.104000
     18 C12          7.6410    -0.4410     4.1220 ca         1 591      -0.081000
     19 C13          7.6620     0.8130     4.6970 ca         1 591      -0.076000
     20 C14          6.4710     1.4040     5.1180 cp         1 591       0.005000
     21 C15          5.2660     0.7250     4.9490 ca         1 591      -0.079000
     22 C16          6.4880     2.7510     5.7370 cp         1 591      -0.300600
     23 C17          5.3050     3.3590     6.1650 ca         1 591       0.451700
     24 C18          6.5170     5.1850     6.8550 ca         1 591       0.643900
     25 C19          7.6870     3.4480     5.9100 ca         1 591       0.451700
     26 H1          -0.3610    -0.1430    -1.0110 hc         1 591       0.020700
     27 H1A         -0.3610    -0.8040     0.6300 hc         1 591       0.020700
     28 H1B         -0.3610     0.9470     0.3810 hc         1 591       0.020700
     29 H2           1.8910     0.8850    -0.5110 h1         1 591       0.036700
     30 H2A          1.8910    -0.8850    -0.5110 h1         1 591       0.036700
     31 H3           3.3250    -1.7350     1.4090 h4         1 591       0.149000
     32 H5           2.2460     1.1170     4.4230 h4         1 591       0.024100
     33 HN5          4.2550    -5.0790     3.7570 hn         1 591       0.221467
     34 HN5A         2.8410    -5.1800     4.5700 hn         1 591       0.221467
     35 H9           1.7210    -4.0210     6.5750 h1         1 591       0.035367
     36 H9A          2.1810    -2.6320     7.5690 h1         1 591       0.035367
     37 H9B          3.2850    -4.0040     7.4020 h1         1 591       0.035367
     38 H11          6.4300    -2.0960     3.5090 ha         1 591       0.102000
     39 H12          8.5650    -0.9020     3.7940 ha         1 591       0.114000
     40 H13          8.6020     1.3360     4.8240 ha         1 591       0.123000
     41 H15          4.3380     1.1800     5.2740 ha         1 591       0.136000
     42 H17          4.3540     2.8540     6.0500 h4         1 591      -0.009900
     43 H18          6.5290     6.1690     7.3080 h5         1 591       0.008100
     44 H19          8.6270     3.0130     5.5930 h4         1 591      -0.009900
     45 N5           3.7710    -4.8110     4.5910 nz         1 591       0.224400
     46 H53          4.2640    -5.1730     5.3830 hn         1 591       0.221467
     47 C9           2.5460    -3.3960     6.8940 c3         1 591       0.066300
@<TRIPOS>BOND
     1     1     4 1   
     2     1    26 1   
     3     1    27 1   
     4     1    28 1   
     5     2     4 1   
     6     2     5 1   
     7     2     6 1   
     8     3    13 2   
     9     4    29 1   
    10     4    30 1   
    11     5    10 2   
    12     6     8 2   
    13     6    31 1   
    14     7    13 1   
    15     7    15 1   
    16     7    47 1   
    17     8    10 1   
    18     8    11 1   
    19     9    11 1   
    20     9    15 2   
    21    10    32 1   
    22    11    13 1   
    23    11    16 1   
    24    12    23 ar  
    25    12    24 ar  
    26    14    24 ar  
    27    14    25 ar  
    28    15    45 1   
    29    16    17 ar  
    30    16    21 ar  
    31    17    18 ar  
    32    17    38 1   
    33    18    19 ar  
    34    18    39 1   
    35    19    20 ar  
    36    19    40 1   
    37    20    21 ar  
    38    20    22 1   
    39    21    41 1   
    40    22    23 ar  
    41    22    25 ar  
    42    23    42 1   
    43    24    43 1   
    44    25    44 1   
    45    33    45 1   
    46    34    45 1   
    47    35    47 1   
    48    36    47 1   
    49    37    47 1   
    50    45    46 1   
@<TRIPOS>SUBSTRUCTURE
     1 591         1 TEMP              0 ****  ****    0 ROOT
