@<TRIPOS>MOLECULE
molecule
   47    50     1     0     0
SMALL
bcc


@<TRIPOS>ATOM
      1 C1           0.0000     0.0000     0.0000 c3         1 591      -0.110100
      2 N1           2.0180     0.0000     1.3820 na         1 591       0.087400
      3 O1           2.8640    -0.5490     6.2740 o          1 591      -0.511500
      4 C2           1.5300     0.0000     0.0000 c3         1 591       0.066300
      5 N2           1.6760     0.9240     2.3780 nc         1 591      -0.474800
      6 C3           2.8730    -0.8940     1.9210 cc         1 591      -0.074300
      7 N3           3.1580    -2.7610     5.7240 n          1 591      -0.428300
      8 C4           3.0720    -0.5470     3.2140 cd         1 591      -0.345600
      9 N4           4.2000    -2.6500     3.7600 n2         1 591      -0.531900
     10 C5           2.3050     0.5940     3.4760 cd         1 591       0.356200
     11 C6           3.9540    -1.2670     4.2010 c3         1 591       0.198800
     12 N6           5.3640     4.5620     6.7120 nb         1 591      -0.725500
     13 C7           3.2540    -1.4280     5.5350 c          1 591       0.709500
     14 N7           7.6560     4.6470     6.4660 nb         1 591      -0.725500
     15 C8           3.7190    -3.4410     4.6700 c2         1 591       0.451800
     16 C10          5.2570    -0.5300     4.3780 ca         1 591      -0.092300
     17 C11          6.4420    -1.1110     3.9620 ca         1 591      -0.119000
     18 C12          7.6410    -0.4410     4.1220 ca         1 591      -0.115000
     19 C13          7.6620     0.8130     4.6970 ca         1 591      -0.099000
     20 C14          6.4710     1.4040     5.1180 cp         1 591      -0.008000
     21 C15          5.2660     0.7250     4.9490 ca         1 591      -0.094000
     22 C16          6.4880     2.7510     5.7370 cp         1 591      -0.309600
     23 C17          5.3050     3.3590     6.1650 ca         1 591       0.472700
     24 C18          6.5170     5.1850     6.8550 ca         1 591       0.693900
     25 C19          7.6870     3.4480     5.9100 ca         1 591       0.472700
     26 H1          -0.3610    -0.1430    -1.0110 hc         1 591       0.056367
     27 H1A         -0.3610    -0.8040     0.6300 hc         1 591       0.056367
     28 H1B         -0.3610     0.9470     0.3810 hc         1 591       0.056367
     29 H2           1.8910     0.8850    -0.5110 h1         1 591       0.068700
     30 H2A          1.8910    -0.8850    -0.5110 h1         1 591       0.068700
     31 H3           3.3250    -1.7350     1.4090 h4         1 591       0.175000
     32 H5           2.2460     1.1170     4.4230 h4         1 591       0.066100
     33 HN5          4.2550    -5.0790     3.7570 hn         1 591       0.479800
     34 HN5A         2.8410    -5.1800     4.5700 hn         1 591       0.479800
     35 H9           1.7210    -4.0210     6.5750 h1         1 591       0.070367
     36 H9A          2.1810    -2.6320     7.5690 h1         1 591       0.070367
     37 H9B          3.2850    -4.0040     7.4020 h1         1 591       0.070367
     38 H11          6.4300    -2.0960     3.5090 ha         1 591       0.128000
     39 H12          8.5650    -0.9020     3.7940 ha         1 591       0.145000
     40 H13          8.6020     1.3360     4.8240 ha         1 591       0.148000
     41 H15          4.3380     1.1800     5.2740 ha         1 591       0.152000
     42 H17          4.3540     2.8540     6.0500 h4         1 591       0.031600
     43 H18          6.5290     6.1690     7.3080 h5         1 591       0.071100
     44 H19          8.6270     3.0130     5.5930 h4         1 591       0.031600
     45 N5           3.7710    -4.8110     4.5910 nz         1 591      -0.724600
     46 H53          4.2640    -5.1730     5.3830 hn         1 591       0.479800
     47 C9           2.5460    -3.3960     6.8940 c3         1 591       0.073300
@<TRIPOS>BOND
     1     1     4 1   
     2     1    26 1   
     3     1    27 1   
     4     1    28 1   
     5     5     2 1   
     6     2     6 1   
     7     2     4 1   
     8    13     3 2   
     9     4    29 1   
    10     4    30 1   
    11    10     5 2   
    12     8     6 2   
    13     6    31 1   
    14    15     7 1   
    15     7    13 1   
    16     7    47 1   
    17    10     8 1   
    18    11     8 1   
    19     9    15 2   
    20     9    11 1   
    21    10    32 1   
    22    45    15 1   
    23    45    33 1   
    24    45    34 1   
    25    16    11 1   
    26    11    13 1   
    27    12    23 ar  
    28    12    24 ar  
    29    24    14 ar  
    30    14    25 ar  
    31    47    35 1   
    32    47    36 1   
    33    47    37 1   
    34    21    16 ar  
    35    16    17 ar  
    36    18    17 ar  
    37    17    38 1   
    38    19    18 ar  
    39    18    39 1   
    40    20    19 ar  
    41    19    40 1   
    42    22    20 1   
    43    20    21 ar  
    44    21    41 1   
    45    23    22 ar  
    46    22    25 ar  
    47    23    42 1   
    48    24    43 1   
    49    25    44 1   
    50    46    45 1   
@<TRIPOS>SUBSTRUCTURE
     1 591         1 TEMP              0 ****  ****    0 ROOT
