@<TRIPOS>MOLECULE
592
   68    72     1     0     0
SMALL
bcc


@<TRIPOS>ATOM
      1 C20          0.0000     0.0000     0.0000 c3         1 592       0.051200
      2 C13          1.5070     0.0000     0.0000 ca         1 592      -0.045300
      3 C14          2.2030     0.0000     1.1980 ca         1 592       0.139100
      4 O2           1.5240    -0.0010     2.3760 os         1 592      -0.300900
      5 C19          2.3050    -0.0010     3.5730 c3         1 592       0.242700
      6 C15          3.5900     0.0000     1.1960 ca         1 592      -0.186000
      7 C16          4.2850     0.0010    -0.0000 ca         1 592      -0.072000
      8 C1           3.6030     0.0030    -1.1990 ca         1 592      -0.135000
      9 C12          2.2060    -0.0040    -1.2080 ca         1 592      -0.126600
     10 C10          1.4710    -0.0110    -2.4900 c          1 592       0.610700
     11 O1           0.2600     0.0940    -2.4980 o          1 592      -0.650100
     12 N1           2.1450    -0.1320    -3.6520 ns         1 592      -0.340900
     13 C4           1.4160    -0.1380    -4.9230 c3         1 592       0.040700
     14 C5           1.8920     1.0330    -5.7880 c3         1 592      -0.101900
     15 C3           1.6770    -1.4590    -5.6530 c3         1 592      -0.101900
     16 C2           3.1600    -1.5230    -6.0510 c3         1 592       0.140000
     17 C8           4.0000    -1.1300    -4.8140 c3         1 592      -0.086400
     18 C7           4.1320     0.4050    -4.8970 c3         1 592      -0.086400
     19 C6           3.3610     0.8000    -6.1770 c3         1 592       0.140000
     20 N4           3.4040    -0.4230    -7.0230 nh         1 592      -0.457300
     21 C21          2.4170    -0.3900    -7.9930 ca         1 592       0.527200
     22 C26          2.1260     0.8110    -8.6370 ca         1 592      -0.280300
     23 C25          1.1500     0.8390    -9.5970 ca         1 592       0.027000
     24 N2           1.7660    -1.5040    -8.3010 nb         1 592      -0.628000
     25 C23          0.8200    -1.5210    -9.2180 ca         1 592       0.448200
     26 C24          0.4730    -0.3520    -9.8980 ca         1 592      -0.313900
     27 C27         -0.5860    -0.3720   -10.9250 c          1 592       0.604700
     28 O3          -0.8780     0.6490   -11.5170 o          1 592      -0.652100
     29 N3          -1.2300    -1.5220   -11.2080 ns         1 592      -0.197900
     30 C11         -2.2810    -1.5420   -12.2270 c3         1 592       0.114300
     31 C17         -2.8370    -2.9360   -12.3490 ca         1 592      -0.130300
     32 C18         -3.9090    -3.3250   -11.5680 ca         1 592      -0.083500
     33 C22         -4.4180    -4.6060   -11.6800 ca         1 592      -0.102000
     34 C28         -3.8560    -5.4970   -12.5740 ca         1 592      -0.091000
     35 C9          -2.7840    -5.1080   -13.3570 ca         1 592      -0.102000
     36 C29         -2.2780    -3.8270   -13.2480 ca         1 592      -0.083500
     37 H201        -0.3610     0.9060    -0.4710 hc         1 592       0.025033
     38 H202        -0.3610    -0.8610    -0.5500 hc         1 592       0.025033
     39 H203        -0.3610    -0.0460     1.0200 hc         1 592       0.025033
     40 H15          4.1310    -0.0000     2.1350 ha         1 592       0.120000
     41 H191         2.9300    -0.8850     3.5960 h1         1 592      -0.001967
     42 H192         2.9290     0.8840     3.5970 h1         1 592      -0.001967
     43 H193         1.6460    -0.0020     4.4330 h1         1 592      -0.001967
     44 H16          5.3680     0.0040     0.0050 ha         1 592       0.103000
     45 H1           4.1510     0.0020    -2.1340 ha         1 592       0.102000
     46 HA           3.1370    -0.2620    -3.6430 hn         1 592       0.287500
     47 H4           0.3550    -0.0360    -4.7310 h1         1 592       0.073700
     48 H51C         1.8070     1.9560    -5.2280 hc         1 592       0.048700
     49 H52C         1.2850     1.0930    -6.6830 hc         1 592       0.048700
     50 H31C         1.0600    -1.5110    -6.5420 hc         1 592       0.048700
     51 H32C         1.4410    -2.2880    -4.9980 hc         1 592       0.048700
     52 H6           3.7980     1.6590    -6.6730 h1         1 592       0.057200
     53 H2           3.4400    -2.4910    -6.4480 h1         1 592       0.057200
     54 H81C         4.9770    -1.5960    -4.8580 hc         1 592       0.046700
     55 H82C         3.4860    -1.4150    -3.9030 hc         1 592       0.046700
     56 H71C         5.1740     0.6890    -4.9820 hc         1 592       0.046700
     57 H72C         3.6840     0.8700    -4.0280 hc         1 592       0.046700
     58 H26          2.6670     1.7140    -8.3810 ha         1 592       0.131000
     59 H25          0.9040     1.7610   -10.1100 ha         1 592       0.132000
     60 H23          0.3070    -2.4470    -9.4430 h4         1 592      -0.020900
     61 H3          -0.9850    -2.3640   -10.7250 hn         1 592       0.181500
     62 H111        -3.0740    -0.8610   -11.9410 h1         1 592       0.030200
     63 H112        -1.8670    -1.2330   -13.1800 h1         1 592       0.030200
     64 H18         -4.3490    -2.6270   -10.8670 ha         1 592       0.108500
     65 H29         -1.4390    -3.5230   -13.8610 ha         1 592       0.108500
     66 H22         -5.2580    -4.9100   -11.0670 ha         1 592       0.105500
     67 H28         -4.2540    -6.5010   -12.6610 ha         1 592       0.104000
     68 H9          -2.3450    -5.8060   -14.0590 ha         1 592       0.105500
@<TRIPOS>BOND
     1     1     2 1   
     2     1    37 1   
     3     1    38 1   
     4     1    39 1   
     5     2     3 ar  
     6     2     9 ar  
     7     3     4 1   
     8     3     6 ar  
     9     4     5 1   
    10     5    41 1   
    11     5    42 1   
    12     5    43 1   
    13     6     7 ar  
    14     6    40 1   
    15     7     8 ar  
    16     7    44 1   
    17     8     9 ar  
    18     8    45 1   
    19     9    10 1   
    20    10    11 2   
    21    10    12 1   
    22    12    13 1   
    23    12    46 1   
    24    13    14 1   
    25    13    15 1   
    26    13    47 1   
    27    14    19 1   
    28    14    48 1   
    29    14    49 1   
    30    15    16 1   
    31    15    50 1   
    32    15    51 1   
    33    16    17 1   
    34    16    20 1   
    35    16    53 1   
    36    17    18 1   
    37    17    54 1   
    38    17    55 1   
    39    18    19 1   
    40    18    56 1   
    41    18    57 1   
    42    19    20 1   
    43    19    52 1   
    44    20    21 1   
    45    21    22 ar  
    46    21    24 ar  
    47    22    23 ar  
    48    22    58 1   
    49    23    26 ar  
    50    23    59 1   
    51    24    25 ar  
    52    25    26 ar  
    53    25    60 1   
    54    26    27 1   
    55    27    28 2   
    56    27    29 1   
    57    29    30 1   
    58    29    61 1   
    59    30    31 1   
    60    30    62 1   
    61    30    63 1   
    62    31    32 ar  
    63    31    36 ar  
    64    32    33 ar  
    65    32    64 1   
    66    33    34 ar  
    67    33    66 1   
    68    34    35 ar  
    69    34    67 1   
    70    35    36 ar  
    71    35    68 1   
    72    36    65 1   
@<TRIPOS>SUBSTRUCTURE
     1 592         1 TEMP              0 ****  ****    0 ROOT
