@<TRIPOS>MOLECULE
molecule
   50    54     1     0     0
SMALL
bcc


@<TRIPOS>ATOM
      1 C1           0.0000     0.0000     0.0000 c3         1 593       0.072300
      2 N1           1.4640     0.0000     0.0000 n          1 593      -0.431300
      3 O1           1.8600    -0.0020     2.2640 o          1 593      -0.515500
      4 C2           2.2320     0.0000     1.1110 c          1 593       0.708500
      5 N2           3.5150     0.0010    -0.8620 n2         1 593      -0.517900
      6 C3           3.6600     0.0010     0.6020 c3         1 593       0.102500
      7 N3           1.7360    -0.0050    -2.4060 nz         1 593      -0.722600
      8 C4           2.2460    -0.0050    -1.1290 c2         1 593       0.442800
      9 C5           4.3790     1.2430     1.0630 ca         1 593      -0.107300
     10 C6           4.1980     1.7070     2.3520 ca         1 593      -0.112500
     11 C7           4.8570     2.8470     2.7750 ca         1 593      -0.120500
     12 C8           5.6960     3.5210     1.9100 ca         1 593      -0.100000
     13 C9           5.8790     3.0560     0.6200 ca         1 593      -0.120500
     14 C10          5.2230     1.9130     0.1990 ca         1 593      -0.112500
     15 C11          4.4030    -1.2540     1.0670 c3         1 593      -0.024000
     16 C12          5.7950    -1.2860     0.4350 c3         1 593      -0.069733
     17 C13          6.5370    -2.5420     0.9000 c3         1 593      -0.061367
     18 C14          6.6700    -2.5210     2.4240 c3         1 593      -0.071400
     19 C15          5.2760    -2.4880     3.0560 c3         1 593      -0.061367
     20 C16          4.5340    -1.2340     2.5910 c3         1 593      -0.069733
     21 C17          4.4930    -3.7310     2.6280 c3         1 593      -0.071400
     22 C18          4.3610    -3.7520     1.1050 c3         1 593      -0.061367
     23 C19          5.7550    -3.7850     0.4730 c3         1 593      -0.071400
     24 C20          3.6200    -2.4970     0.6390 c3         1 593      -0.069733
     25 H1          -0.3610    -0.0030     1.0210 h1         1 593       0.068700
     26 H1A         -0.3610    -0.8830    -0.5140 h1         1 593       0.068700
     27 H1B         -0.3610     0.8860    -0.5080 h1         1 593       0.068700
     28 HN3          1.1660     0.8070    -2.5380 hn         1 593       0.478800
     29 HN3A         2.4890     0.0050    -3.0650 hn         1 593       0.478800
     30 H6           3.5390     1.1790     3.0310 ha         1 593       0.148500
     31 H7           4.7150     3.2110     3.7860 ha         1 593       0.147500
     32 H8           6.2110     4.4140     2.2410 ha         1 593       0.148000
     33 H9           6.5390     3.5830    -0.0580 ha         1 593       0.147500
     34 H10          5.3650     1.5480    -0.8110 ha         1 593       0.148500
     35 H12          6.3500    -0.4060     0.7370 hc         1 593       0.048200
     36 H12A         5.7020    -1.3010    -0.6450 hc         1 593       0.048200
     37 H13          7.5230    -2.5650     0.4530 hc         1 593       0.062367
     38 H14          7.1950    -3.4090     2.7530 hc         1 593       0.051033
     39 H14A         7.2240    -1.6400     2.7260 hc         1 593       0.051033
     40 H15          5.3700    -2.4730     4.1350 hc         1 593       0.062367
     41 H16          5.0880    -0.3530     2.8940 hc         1 593       0.048200
     42 H16A         3.5470    -1.2120     3.0390 hc         1 593       0.048200
     43 H17          3.5070    -3.7090     3.0760 hc         1 593       0.051033
     44 H17A         5.0190    -4.6200     2.9570 hc         1 593       0.051033
     45 H18          3.8070    -4.6320     0.8020 hc         1 593       0.062367
     46 H19          5.6610    -3.7990    -0.6070 hc         1 593       0.051033
     47 H19A         6.2800    -4.6730     0.8020 hc         1 593       0.051033
     48 H20          3.5270    -2.5120    -0.4400 hc         1 593       0.048200
     49 H20A         2.6340    -2.4750     1.0860 hc         1 593       0.048200
     50 H33          1.1520    -0.8080    -2.5320 hn         1 593       0.478800
@<TRIPOS>BOND
     1     2     1 1   
     2     1    25 1   
     3     1    26 1   
     4     1    27 1   
     5     8     2 1   
     6     2     4 1   
     7     4     3 2   
     8     6     4 1   
     9     5     8 2   
    10     5     6 1   
    11    15     6 1   
    12     6     9 1   
    13     7     8 1   
    14     7    28 1   
    15     7    29 1   
    16    10     9 ar  
    17     9    14 ar  
    18    10    11 ar  
    19    10    30 1   
    20    11    12 ar  
    21    11    31 1   
    22    12    13 ar  
    23    12    32 1   
    24    14    13 ar  
    25    13    33 1   
    26    14    34 1   
    27    24    15 1   
    28    20    15 1   
    29    15    16 1   
    30    17    16 1   
    31    16    35 1   
    32    16    36 1   
    33    23    17 1   
    34    18    17 1   
    35    17    37 1   
    36    19    18 1   
    37    18    38 1   
    38    18    39 1   
    39    21    19 1   
    40    19    20 1   
    41    19    40 1   
    42    20    41 1   
    43    20    42 1   
    44    21    22 1   
    45    21    43 1   
    46    21    44 1   
    47    22    24 1   
    48    22    23 1   
    49    22    45 1   
    50    23    46 1   
    51    23    47 1   
    52    24    48 1   
    53    24    49 1   
    54    50     7 1   
@<TRIPOS>SUBSTRUCTURE
     1 593         1 TEMP              0 ****  ****    0 ROOT
