@<TRIPOS>MOLECULE
molecule
   92    94     1     0     0
SMALL
bcc


@<TRIPOS>ATOM
      1 C            0.0000     0.0000     0.0000 ca         1 595       0.222600
      2 N           -0.6990     0.0060    -1.2090 nv         1 595      -0.997200
      3 O            1.3880    -0.5460     4.8930 o          1 595      -0.645300
      4 S            2.2690    -0.0020     3.9200 sy         1 595       1.429200
      5 C1           1.3890     0.0000     0.0000 ca         1 595      -0.165500
      6 C2           2.0780     0.0000     1.1970 ca         1 595      -0.021000
      7 C3           1.3860    -0.0000     2.3950 ca         1 595      -0.312500
      8 C4           0.0030    -0.0010     2.3980 ca         1 595      -0.021000
      9 C5          -0.6910     0.0010     1.2040 ca         1 595      -0.165500
     10 N6           2.5150     1.5800     4.3450 n3         1 595      -0.798500
     11 O7           3.5510    -0.5460     3.6410 o          1 595      -0.645300
     12 C8           1.4850     2.3070     5.0910 c3         1 595       0.123500
     13 C9           2.1480     3.1630     6.1730 c3         1 595      -0.082400
     14 C10          3.7620     2.2530     3.9740 c3         1 595       0.217800
     15 C11          3.5370     3.0840     2.7080 c3         1 595      -0.107400
     16 C12          4.7600     3.9670     2.4540 c3         1 595      -0.078700
     17 C13          4.5890     4.7040     1.1240 c3         1 595      -0.088100
     18 C14          4.8990     4.9850     3.5870 c3         1 595      -0.088100
     19 C15          2.8190     2.2540     7.2040 c3         1 595      -0.080400
     20 C16          3.3930     3.1050     8.3380 c3         1 595      -0.106400
     21 C17          3.8820     2.1930     9.4640 c3         1 595       0.124700
     22 N18          4.9900     1.3700     8.9780 ns         1 595      -0.584900
     23 C19          6.1280     1.9540     8.5520 c          1 595       0.645100
     24 C20          7.2630     1.1080     8.0360 c3         1 595       0.079700
     25 N21          8.2850     1.9730     7.4410 ns         1 595      -0.554900
     26 C22          8.8940     2.9100     8.1930 c          1 595       0.762100
     27 O23          9.8350     3.7050     7.6470 os         1 595      -0.441900
     28 C24         10.4490     4.6920     8.5160 c3         1 595       0.160700
     29 O25          8.5970     3.0390     9.3640 o          1 595      -0.602000
     30 C26          0.7130     3.1950     4.1490 c          1 595       0.539900
     31 O27          0.9010     3.1200     2.9590 o          1 595      -0.502100
     32 O28          6.2390     3.1620     8.5860 o          1 595      -0.586100
     33 C29          6.8680    -0.6830     9.7040 ca         1 595      -0.075300
     34 C30          9.1020    -0.4140     8.7050 ca         1 595      -0.075300
     35 C31         10.3280    -0.1750     9.2970 ca         1 595      -0.126750
     36 C32         11.4520    -0.8480     8.8560 ca         1 595      -0.125000
     37 C33         11.3500    -1.7600     7.8220 ca         1 595      -0.129000
     38 C34         10.1240    -1.9990     7.2300 ca         1 595      -0.125000
     39 C35          9.0000    -1.3260     7.6710 ca         1 595      -0.126750
     40 C36          6.6440    -0.8020    11.0620 ca         1 595      -0.126750
     41 C37          5.7170    -1.7130    11.5320 ca         1 595      -0.125000
     42 C38          5.0140    -2.5050    10.6440 ca         1 595      -0.129000
     43 C39          5.2380    -2.3860     9.2860 ca         1 595      -0.125000
     44 C40          6.1650    -1.4750     8.8150 ca         1 595      -0.126750
     45 C41          4.3570     3.0450    10.6420 c3         1 595      -0.102100
     46 C42          7.8750     0.3140     9.1910 c3         1 595       0.003900
     47 HN          -0.9170    -0.8580    -1.6650 hn         1 595       0.433300
     48 HNA         -0.9790     0.8740    -1.6210 hn         1 595       0.433300
     49 H1           1.9320     0.0000    -0.9380 ha         1 595       0.139500
     50 H2           3.1610    -0.0000     1.1980 ha         1 595       0.144500
     51 H4          -0.5360    -0.0000     3.3380 ha         1 595       0.144500
     52 H5          -1.7750     0.0000     1.2070 ha         1 595       0.139500
     53 H8           0.8080     1.6000     5.5550 h1         1 595       0.102700
     54 H9           1.3970     3.7710     6.6630 hc         1 595       0.054700
     55 H9A          2.8920     3.8060     5.7190 hc         1 595       0.054700
     56 H10          4.5300     1.5120     3.7870 h1         1 595       0.067700
     57 H10A         4.0750     2.9030     4.7810 h1         1 595       0.067700
     58 H11          2.6610     3.7080     2.8370 hc         1 595       0.059700
     59 H11A         3.3880     2.4220     1.8630 hc         1 595       0.059700
     60 H12          5.6490     3.3490     2.4130 hc         1 595       0.047700
     61 H13          4.4820     3.9830     0.3230 hc         1 595       0.034367
     62 H13A         5.4580     5.3230     0.9400 hc         1 595       0.034367
     63 H13B         3.7040     5.3280     1.1680 hc         1 595       0.034367
     64 H14          3.9260     5.4030     3.8180 hc         1 595       0.034367
     65 H14A         5.5690     5.7780     3.2790 hc         1 595       0.034367
     66 H14B         5.2990     4.4950     4.4660 hc         1 595       0.034367
     67 H15          2.0880     1.5620     7.6060 hc         1 595       0.046700
     68 H15A         3.6190     1.6990     6.7290 hc         1 595       0.046700
     69 H16          4.2220     3.6940     7.9640 hc         1 595       0.062700
     70 H16A         2.6230     3.7670     8.7170 hc         1 595       0.062700
     71 H17          3.0700     1.5510     9.7870 h1         1 595       0.052700
     72 HN18         4.8880     0.3750     8.9230 hn         1 595       0.323500
     73 H20          6.8890     0.4220     7.2850 h1         1 595       0.075700
     74 HN21         8.4950     1.9010     6.4650 hn         1 595       0.329500
     75 H24         10.9150     4.1930     9.3570 h1         1 595       0.048033
     76 H24A        11.1990     5.2440     7.9620 h1         1 595       0.048033
     77 H24B         9.6910     5.3760     8.8780 h1         1 595       0.048033
     78 H26         -0.0400     3.8710     4.5370 h4         1 595       0.002200
     79 H31         10.4070     0.5400    10.1070 ha         1 595       0.135000
     80 H32         12.4120    -0.6600     9.3200 ha         1 595       0.132250
     81 H33         12.2310    -2.2870     7.4760 ha         1 595       0.130500
     82 H34         10.0440    -2.7140     6.4200 ha         1 595       0.132250
     83 H35          8.0390    -1.5140     7.2070 ha         1 595       0.135000
     84 H36          7.1950    -0.1820    11.7590 ha         1 595       0.135000
     85 H37          5.5410    -1.8060    12.5970 ha         1 595       0.132250
     86 H38          4.2870    -3.2180    11.0130 ha         1 595       0.130500
     87 H39          4.6870    -3.0060     8.5900 ha         1 595       0.132250
     88 H40          6.3410    -1.3820     7.7500 ha         1 595       0.135000
     89 H41          3.5550     3.1420    11.3640 hc         1 595       0.046700
     90 H41A         5.2100     2.5700    11.1110 hc         1 595       0.046700
     91 H41B         4.6410     4.0280    10.2850 hc         1 595       0.046700
     92 H42          8.1510     0.9930     9.9890 hc         1 595       0.110700
@<TRIPOS>BOND
     1     5     1 ar  
     2     1     9 ar  
     3     1     2 1   
     4     2    47 1   
     5     2    48 1   
     6     4     3 2   
     7    11     4 2   
     8    10     4 1   
     9     4     7 1   
    10     6     5 ar  
    11     5    49 1   
    12     6     7 ar  
    13     6    50 1   
    14     7     8 ar  
    15     8     9 ar  
    16     8    51 1   
    17     9    52 1   
    18    14    10 1   
    19    10    12 1   
    20    13    12 1   
    21    12    30 1   
    22    12    53 1   
    23    19    13 1   
    24    13    54 1   
    25    13    55 1   
    26    14    15 1   
    27    14    56 1   
    28    14    57 1   
    29    16    15 1   
    30    15    58 1   
    31    15    59 1   
    32    17    16 1   
    33    16    18 1   
    34    16    60 1   
    35    17    61 1   
    36    17    62 1   
    37    17    63 1   
    38    18    64 1   
    39    18    65 1   
    40    18    66 1   
    41    20    19 1   
    42    19    67 1   
    43    19    68 1   
    44    20    21 1   
    45    20    69 1   
    46    20    70 1   
    47    45    21 1   
    48    21    22 1   
    49    21    71 1   
    50    22    23 1   
    51    22    72 1   
    52    23    24 1   
    53    23    32 2   
    54    25    24 1   
    55    24    46 1   
    56    24    73 1   
    57    26    25 1   
    58    25    74 1   
    59    29    26 2   
    60    27    26 1   
    61    28    27 1   
    62    28    75 1   
    63    28    76 1   
    64    28    77 1   
    65    31    30 2   
    66    30    78 1   
    67    46    33 1   
    68    44    33 ar  
    69    33    40 ar  
    70    46    34 1   
    71    39    34 ar  
    72    34    35 ar  
    73    35    36 ar  
    74    35    79 1   
    75    37    36 ar  
    76    36    80 1   
    77    38    37 ar  
    78    37    81 1   
    79    39    38 ar  
    80    38    82 1   
    81    39    83 1   
    82    40    41 ar  
    83    40    84 1   
    84    42    41 ar  
    85    41    85 1   
    86    43    42 ar  
    87    42    86 1   
    88    44    43 ar  
    89    43    87 1   
    90    44    88 1   
    91    45    89 1   
    92    45    90 1   
    93    45    91 1   
    94    46    92 1   
@<TRIPOS>SUBSTRUCTURE
     1 595         1 TEMP              0 ****  ****    0 ROOT
