@<TRIPOS>MOLECULE
molecule
   51    55     1     0     0
SMALL
bcc


@<TRIPOS>ATOM
      1 C1           0.0000     0.0000     0.0000 c3         1 596       0.157300
      2 C2           1.5310     0.0000     0.0000 c3         1 596       0.165800
      3 N3           2.0190     0.0000     1.3860 n3         1 596      -0.725600
      4 C4           1.5310     1.1810     2.1130 c3         1 596       0.165800
      5 C5           0.0000     1.1810     2.1130 c3         1 596       0.157300
      6 N6          -0.4870     1.1810     0.7270 n7         1 596      -0.822200
      7 C7           3.4850    -0.0770     1.4290 c3         1 596       0.222100
      8 C8           3.9340    -0.3210     2.8460 ca         1 596      -0.134300
      9 C9           4.0850    -1.6210     3.3120 ca         1 596       0.205100
     10 C10          4.5050    -1.8220     4.6370 ca         1 596      -0.313600
     11 C11          4.7660    -0.7340     5.4690 ca         1 596       0.019000
     12 C12          4.6140     0.5380     4.9950 ca         1 596      -0.266000
     13 C13          4.2020     0.7500     3.6830 ca         1 596       0.201100
     14 O14          4.0590     2.0180     3.2190 os         1 596      -0.322900
     15 C15          4.3510     3.0790     4.1310 c3         1 596       0.126700
     16 O16          3.8960    -2.8150     2.7080 os         1 596      -0.170200
     17 C17          4.1630    -3.8470     3.5420 cc         1 596      -0.018100
     18 C18          4.5710    -3.2820     4.8340 c          1 596       0.569900
     19 O19          4.8930    -3.8850     5.8440 o          1 596      -0.504100
     20 C20          4.0700    -5.1700     3.2370 cf         1 596      -0.123600
     21 C21          3.6470    -5.5850     1.8980 cd         1 596       0.398200
     22 N22          3.3290    -4.7860     0.8980 nc         1 596      -0.462100
     23 N23          2.9770    -5.5460    -0.2220 na         1 596      -0.048100
     24 C24          3.0760    -6.8800     0.0830 ca         1 596      -0.021200
     25 C25          3.5050    -6.9670     1.4200 ca         1 596      -0.231900
     26 C26          3.7010    -8.2180     2.0060 ca         1 596      -0.057000
     27 C27          3.4780    -9.3520     1.2780 ca         1 596      -0.166000
     28 C28          3.0580    -9.2730    -0.0430 ca         1 596      -0.085000
     29 C29          2.8500    -8.0500    -0.6400 ca         1 596      -0.157000
     30 H1          -0.3600    -0.8970     0.4880 h1         1 596       0.037200
     31 H1A         -0.3600     0.0320    -1.0210 h1         1 596       0.037200
     32 H2           1.8910     0.8860    -0.5080 h1         1 596       0.042200
     33 H2A          1.8910    -0.8860    -0.5080 h1         1 596       0.042200
     34 H4           1.8920     1.1490     3.1340 h1         1 596       0.042200
     35 H4A          1.8920     2.0780     1.6250 h1         1 596       0.042200
     36 H5          -0.3600     2.0670     2.6210 h1         1 596       0.037200
     37 H5A         -0.3600     0.2950     2.6210 h1         1 596       0.037200
     38 HN6         -1.4880     1.1840     0.7250 hn         1 596       0.350800
     39 H7           3.9060     0.8550     1.0720 h1         1 596       0.050700
     40 H7A          3.8220    -0.8910     0.7980 h1         1 596       0.050700
     41 H11          5.0870    -0.8970     6.4910 ha         1 596       0.146000
     42 H12          4.8210     1.3840     5.6400 ha         1 596       0.143000
     43 H15          4.1690     4.0310     3.6470 h1         1 596       0.046700
     44 H15A         3.7150     2.9910     5.0030 h1         1 596       0.046700
     45 H15B         5.3890     3.0200     4.4330 h1         1 596       0.046700
     46 H20          4.3090    -5.9160     3.9860 ha         1 596       0.178000
     47 HN23         2.6960    -5.1740    -1.1070 hn         1 596       0.333700
     48 H26          4.0290    -8.2890     3.0360 ha         1 596       0.133000
     49 H27          3.6380   -10.3220     1.7340 ha         1 596       0.133000
     50 H28          2.8860   -10.1820    -0.6070 ha         1 596       0.134000
     51 H29          2.5220    -7.9980    -1.6710 ha         1 596       0.131000
@<TRIPOS>BOND
     1     1     2 1
     2     1     6 1
     3     2     3 1
     4     3     4 1
     5     3     7 1
     6     4     5 1
     7     5     6 1
     8     7     8 1
     9     8     9 ar
    10     8    13 ar
    11     9    10 ar
    12     9    16 1
    13    10    11 ar
    14    10    18 1
    15    11    12 ar
    16    12    13 ar
    17    13    14 1
    18    14    15 1
    19    16    17 1
    20    17    18 1
    21    17    20 2
    22    18    19 2
    23    20    21 1
    24    21    22 2
    25    21    25 1
    26    22    23 1
    27    23    24 1
    28    24    25 ar
    29    24    29 ar
    30    25    26 ar
    31    26    27 ar
    32    27    28 ar
    33    28    29 ar
    34     1    30 1
    35     1    31 1
    36     2    32 1
    37     2    33 1
    38     4    34 1
    39     4    35 1
    40     5    36 1
    41     5    37 1
    42     6    38 1
    43     7    39 1
    44     7    40 1
    45    11    41 1
    46    12    42 1
    47    15    43 1
    48    15    44 1
    49    15    45 1
    50    20    46 1
    51    23    47 1
    52    26    48 1
    53    27    49 1
    54    28    50 1
    55    29    51 1
@<TRIPOS>SUBSTRUCTURE
     1 596         1 TEMP              0 ****  ****    0 ROOT
