@<TRIPOS>MOLECULE
596
   51    55     1     0     0
SMALL
bcc


@<TRIPOS>ATOM
      1 C1           0.0000     0.0000     0.0000 c3         1 596       0.146800
      2 C2           1.5310     0.0000     0.0000 c3         1 596       0.146800
      3 N3           2.0190     0.0000     1.3860 n3         1 596      -0.537600
      4 C4           1.5310     1.1810     2.1130 c3         1 596       0.146800
      5 C5           0.0000     1.1810     2.1130 c3         1 596       0.146800
      6 N6          -0.4870     1.1810     0.7270 n7         1 596      -0.586200
      7 C7           3.4850    -0.0770     1.4290 c3         1 596       0.225100
      8 C8           3.9340    -0.3210     2.8460 ca         1 596      -0.160300
      9 C9           4.0850    -1.6210     3.3120 ca         1 596       0.213100
     10 C10          4.5050    -1.8220     4.6370 ca         1 596      -0.338600
     11 C11          4.7660    -0.7340     5.4690 ca         1 596       0.067000
     12 C12          4.6140     0.5380     4.9950 ca         1 596      -0.266000
     13 C13          4.2020     0.7500     3.6830 ca         1 596       0.216100
     14 O14          4.0590     2.0180     3.2190 os         1 596      -0.304900
     15 C15          4.3510     3.0790     4.1310 c3         1 596       0.242700
     16 O16          3.8960    -2.8150     2.7080 os         1 596      -0.136200
     17 C17          4.1630    -3.8470     3.5420 cc         1 596      -0.028100
     18 C18          4.5710    -3.2820     4.8340 c          1 596       0.632900
     19 O19          4.8930    -3.8850     5.8440 o          1 596      -0.541100
     20 C20          4.0700    -5.1700     3.2370 cf         1 596      -0.105600
     21 C21          3.6470    -5.5850     1.8980 cd         1 596       0.425200
     22 N22          3.3290    -4.7860     0.8980 nc         1 596      -0.611100
     23 N23          2.9770    -5.5460    -0.2220 na         1 596       0.421900
     24 C24          3.0760    -6.8800     0.0830 ca         1 596      -0.188200
     25 C25          3.5050    -6.9670     1.4200 ca         1 596      -0.237900
     26 C26          3.7010    -8.2180     2.0060 ca         1 596      -0.019000
     27 C27          3.4780    -9.3520     1.2780 ca         1 596      -0.142000
     28 C28          3.0580    -9.2730    -0.0430 ca         1 596      -0.057000
     29 C29          2.8500    -8.0500    -0.6400 ca         1 596      -0.119000
     30 H1          -0.3600    -0.8970     0.4880 h1         1 596       0.009450
     31 H1A         -0.3600     0.0320    -1.0210 h1         1 596       0.009450
     32 H2           1.8910     0.8860    -0.5080 h1         1 596       0.017700
     33 H2A          1.8910    -0.8860    -0.5080 h1         1 596       0.017700
     34 H4           1.8920     2.0780     1.6250 h1         1 596       0.017700
     35 H4A          1.8920     1.1490     3.1340 h1         1 596       0.017700
     36 H5          -0.3600     2.0670     2.6210 h1         1 596       0.009450
     37 H5A         -0.3600     0.2950     2.6210 h1         1 596       0.009450
     38 HN6         -1.4880     1.1840     0.7250 hn         1 596       0.250800
     39 H7           3.9060     0.8550     1.0720 h1         1 596       0.021200
     40 H7A          3.8220    -0.8910     0.7980 h1         1 596       0.021200
     41 H11          5.0870    -0.8970     6.4910 ha         1 596       0.108000
     42 H12          4.8210     1.3840     5.6400 ha         1 596       0.128000
     43 H15          4.1690     4.0310     3.6470 h1         1 596       0.001033
     44 H15A         5.3890     3.0200     4.4330 h1         1 596       0.001033
     45 H15B         3.7150     2.9910     5.0030 h1         1 596       0.001033
     46 H20          4.3090    -5.9160     3.9860 ha         1 596       0.136000
     47 HN23         2.6960    -5.1740    -1.1070 hn         1 596       0.152700
     48 H26          4.0290    -8.2890     3.0360 ha         1 596       0.103000
     49 H27          3.6380   -10.3220     1.7340 ha         1 596       0.107000
     50 H28          2.8860   -10.1820    -0.6070 ha         1 596       0.102000
     51 H29          2.5220    -7.9980    -1.6710 ha         1 596       0.105000
@<TRIPOS>BOND
     1     1     2 1   
     2     1     6 1   
     3     1    30 1   
     4     1    31 1   
     5     2     3 1   
     6     2    32 1   
     7     2    33 1   
     8     3     4 1   
     9     3     7 1   
    10     4     5 1   
    11     4    34 1   
    12     4    35 1   
    13     5     6 1   
    14     5    36 1   
    15     5    37 1   
    16     6    38 1   
    17     7     8 1   
    18     7    39 1   
    19     7    40 1   
    20     8     9 ar  
    21     8    13 ar  
    22     9    10 ar  
    23     9    16 1   
    24    10    11 ar  
    25    10    18 1   
    26    11    12 ar  
    27    11    41 1   
    28    12    13 ar  
    29    12    42 1   
    30    13    14 1   
    31    14    15 1   
    32    15    43 1   
    33    15    44 1   
    34    15    45 1   
    35    16    17 1   
    36    17    18 1   
    37    17    20 2   
    38    18    19 2   
    39    20    21 1   
    40    20    46 1   
    41    21    22 2   
    42    21    25 1   
    43    22    23 1   
    44    23    24 1   
    45    23    47 1   
    46    24    25 ar  
    47    24    29 ar  
    48    25    26 ar  
    49    26    27 ar  
    50    26    48 1   
    51    27    28 ar  
    52    27    49 1   
    53    28    29 ar  
    54    28    50 1   
    55    29    51 1   
@<TRIPOS>SUBSTRUCTURE
     1 596         1 TEMP              0 ****  ****    0 ROOT
