@<TRIPOS>MOLECULE
598
   59    63     1     0     0
SMALL
bcc


@<TRIPOS>ATOM
      1 S1           0.0000     0.0000     0.0000 ss         1 598      -0.206800
      2 C2           1.7140     0.0000     0.0000 cc         1 598      -0.035700
      3 C3           2.2810     0.0000     1.2520 cd         1 598       0.135100
      4 C4           1.2650     0.0320     2.2450 cd         1 598       0.010900
      5 C5           0.0030     0.0390     1.7260 cc         1 598      -0.078100
      6 C6           2.4500    -0.0410    -1.3800 c          1 598       1.042200
      7 O7           3.7050     0.1490    -1.4170 o          1 598      -0.853300
      8 O8           1.6740    -0.2800    -2.3470 o          1 598      -0.853300
      9 O9           3.6090    -0.0040     1.5320 os         1 598      -0.228900
     10 C10          4.1650    -1.2960     1.8120 c3         1 598       0.061400
     11 C11          5.6450    -1.0700     2.1170 c          1 598       1.018600
     12 O14          6.0690     0.1110     1.9980 o          1 598      -0.902300
     13 O15          6.2790    -2.0850     2.4700 o          1 598      -0.902300
     14 S18          1.2500     0.0370     3.9770 ss         1 598      -0.158800
     15 C19         -0.4820     0.0660     3.9630 ca         1 598       0.028900
     16 C20         -1.0410     0.0650     2.6870 ca         1 598       0.002000
     17 C21         -1.3350     0.0820     5.0860 ca         1 598      -0.167000
     18 C22         -2.7410     0.1080     4.9400 ca         1 598       0.022600
     19 C23         -3.2790     0.0980     3.6490 ca         1 598      -0.187000
     20 C24         -2.4470     0.0770     2.5160 ca         1 598      -0.038000
     21 N28         -3.5080     0.1280     6.0960 nu         1 598      -0.427600
     22 C29         -2.9730     0.0020     7.4410 c3         1 598       0.147500
     23 C30         -2.5470     1.3970     7.9530 c3         1 598      -0.053900
     24 C31         -2.0170     1.3110     9.3810 c3         1 598       0.234800
     25 N32         -3.0850     0.6710    10.2300 n3         1 598      -0.491500
     26 C33         -3.4430    -0.7310     9.7940 c3         1 598       0.234800
     27 C34         -4.0000    -0.6570     8.3730 c3         1 598      -0.053900
     28 S44         -3.0500     1.0210    11.9250 s6         1 598       0.848900
     29 C45         -4.4400     2.1520    12.0620 c3         1 598       0.085700
     30 C46         -5.6070     1.6300    11.2620 ca         1 598      -0.080300
     31 C49         -5.9390     2.2130    10.0230 ca         1 598      -0.085500
     32 C50         -7.0220     1.7340     9.2680 ca         1 598      -0.101000
     33 C51         -7.7810     0.6620     9.7460 ca         1 598      -0.101000
     34 C52         -7.4640     0.0680    10.9770 ca         1 598      -0.101000
     35 C53         -6.3830     0.5490    11.7330 ca         1 598      -0.085500
     36 O59         -1.8250     1.7340    12.2330 o          1 598      -0.573300
     37 O60         -3.3680    -0.2130    12.6270 o          1 598      -0.573300
     38 H101         4.0580    -1.9430     0.9490 h1         1 598      -0.011800
     39 H102         3.6720    -1.7360     2.6700 h1         1 598      -0.011800
     40 H21         -0.9030     0.0900     6.0800 ha         1 598       0.108000
     41 H23         -4.3540     0.1170     3.5190 ha         1 598       0.087000
     42 H24         -2.8780     0.0690     1.5220 ha         1 598       0.107000
     43 H28         -4.4980     0.2370     5.9960 hn         1 598       0.266800
     44 H29         -2.0930    -0.6300     7.4050 h1         1 598       0.043700
     45 H301        -1.7700     1.7910     7.3090 hc         1 598       0.027700
     46 H302        -3.4040     2.0600     7.9320 hc         1 598       0.027700
     47 H311        -1.1200     0.7040     9.4010 h1         1 598       0.021950
     48 H312        -1.8020     2.3060     9.7520 h1         1 598       0.021950
     49 H331        -4.1930    -1.1390    10.4590 h1         1 598       0.021950
     50 H332        -2.5570    -1.3540     9.8060 h1         1 598       0.021950
     51 H341        -4.2130    -1.6590     8.0200 hc         1 598       0.027700
     52 H342        -4.9100    -0.0700     8.3760 hc         1 598       0.027700
     53 H451        -4.1500     3.1250    11.6840 h1         1 598       0.071200
     54 H452        -4.7280     2.2420    13.1020 h1         1 598       0.071200
     55 H49         -5.3530     3.0440     9.6490 ha         1 598       0.113500
     56 H50         -7.2670     2.1920     8.3170 ha         1 598       0.104500
     57 H51         -8.6170     0.2900     9.1650 ha         1 598       0.101000
     58 H52         -8.0540    -0.7620    11.3460 ha         1 598       0.104500
     59 H53         -6.1420     0.0880    12.6830 ha         1 598       0.113500
@<TRIPOS>BOND
     1     1     2 1   
     2     1     5 1   
     3     2     3 2   
     4     2     6 1   
     5     3     4 1   
     6     3     9 1   
     7     4     5 2   
     8     4    14 1   
     9     5    16 1   
    10     6     7 1   
    11     6     8 1   
    12     9    10 1   
    13    10    11 1   
    14    10    38 1   
    15    10    39 1   
    16    11    12 1   
    17    11    13 1   
    18    14    15 1   
    19    15    16 ar  
    20    15    17 ar  
    21    16    20 ar  
    22    17    18 ar  
    23    17    40 1   
    24    18    19 ar  
    25    18    21 1   
    26    19    20 ar  
    27    19    41 1   
    28    20    42 1   
    29    21    22 1   
    30    21    43 1   
    31    22    23 1   
    32    22    27 1   
    33    22    44 1   
    34    23    24 1   
    35    23    45 1   
    36    23    46 1   
    37    24    25 1   
    38    24    47 1   
    39    24    48 1   
    40    25    26 1   
    41    25    28 1   
    42    26    27 1   
    43    26    49 1   
    44    26    50 1   
    45    27    51 1   
    46    27    52 1   
    47    28    29 1   
    48    28    36 2   
    49    28    37 2   
    50    29    30 1   
    51    29    53 1   
    52    29    54 1   
    53    30    31 ar  
    54    30    35 ar  
    55    31    32 ar  
    56    31    55 1   
    57    32    33 ar  
    58    32    56 1   
    59    33    34 ar  
    60    33    57 1   
    61    34    35 ar  
    62    34    58 1   
    63    35    59 1   
@<TRIPOS>SUBSTRUCTURE
     1 598         1 TEMP              0 ****  ****    0 ROOT
