@<TRIPOS>MOLECULE
molecule
   68    72     1     0     0
SMALL
bcc


@<TRIPOS>ATOM
      1 C1           0.0000     0.0000     0.0000 c3         1 599      -0.043700
      2 N2           1.4700     0.0000     0.0000 n3         1 599      -0.522600
      3 C3           1.9920     0.0000     1.3740 c3         1 599      -0.043700
      4 C4           1.4680    -1.2330     2.1130 c3         1 599      -0.439100
      5 O5           0.0380    -1.2330     2.0770 os         1 599       0.302400
      6 C6          -0.5040    -1.2340     0.7530 c3         1 599      -0.439100
      7 C13          1.9960     1.1400    -0.7630 c3         1 599       0.130800
      8 C14          3.5050     1.2530    -0.5370 c3         1 599      -0.121400
      9 C15          4.0530     2.4390    -1.3320 c3         1 599      -0.076700
     10 N16          5.4980     2.5470    -1.1160 na         1 599       0.089400
     11 N21          6.1260     3.2830    -0.1000 nc         1 599      -0.522800
     12 C22          7.4300     3.1380    -0.2330 cd         1 599       0.427800
     13 C23          7.6560     2.3050    -1.3390 cd         1 599      -0.345600
     14 C24          6.4530     1.9520    -1.8530 cc         1 599      -0.024600
     15 C30          6.2670     1.0470    -3.0450 c3         1 599      -0.108100
     16 C31          7.5890     0.9700    -3.8190 c3         1 599      -0.372000
     17 N32          8.6940     0.7730    -2.8710 n          1 599      -0.346800
     18 C33          8.9800     1.8480    -1.9010 c3         1 599       0.224300
     19 C39          8.4710     3.7460     0.6310 ca         1 599      -0.119500
     20 C41          9.6460     3.0470     0.9070 ca         1 599      -0.101000
     21 C42         10.6170     3.6100     1.7110 ca         1 599      -0.124000
     22 C43         10.4340     4.8690     2.2480 ca         1 599       0.050400
     23 C44          9.2610     5.5810     1.9790 ca         1 599       0.038000
     24 C45          8.2790     5.0160     1.1620 ca         1 599      -0.072000
     25 C52          9.0680     6.8870     2.5340 ch         1 599      -0.115000
     26 C53          8.9100     7.9650     2.9710 cg         1 599      -0.072000
     27 C54          8.6680     9.6830     3.4970 ca         1 599       0.113000
     28 C58          9.5140    10.7730     3.1900 ca         1 599      -0.131000
     29 C59          9.4050    12.1330     3.5540 ca         1 599      -0.116000
     30 C60          8.4570    12.3680     4.2110 ca         1 599       0.096400
     31 C61          7.5890    11.3750     4.5530 ca         1 599      -0.116000
     32 C62          7.8200    10.2270     4.1570 ca         1 599      -0.131000
     33 C69          9.4280    -0.3580    -2.8910 c          1 599       0.568100
     34 C70          9.1190    -1.4380    -3.8960 c3         1 599       0.056400
     35 O71         10.0280    -2.5270    -3.7190 oh         1 599      -0.566800
     36 O77         10.3370    -0.5050    -2.1020 o          1 599      -0.520100
     37 Cl81        11.6600     5.5690     3.2590 cl         1 599      -0.090400
     38 Cl83         7.6680    14.0390     4.2700 cl         1 599      -0.176400
     39 H1          -0.3500     0.1170    -1.0180 h1         1 599       0.143450
     40 H1A         -0.3500    -0.9470     0.3910 h1         1 599       0.143450
     41 H3           3.0680     0.1180     1.3400 h1         1 599       0.143450
     42 H3A          1.7510    -0.9470     1.8400 h1         1 599       0.143450
     43 H4           1.9460    -1.2900     3.0830 h1         1 599       0.071450
     44 H4A          0.3970    -1.1320     2.2480 h1         1 599       0.071450
     45 H6          -0.2500    -1.1330     1.8020 h1         1 599       0.071450
     46 H6A         -1.5810    -1.2920     0.6510 h1         1 599       0.071450
     47 H13          1.1950     1.8420    -0.9620 h1         1 599       0.082200
     48 H13A         2.4090     0.7880    -1.7000 h1         1 599       0.082200
     49 H14          3.8920     0.2980    -0.2010 hc         1 599       0.080200
     50 H14A         3.7020     2.0070     0.2150 hc         1 599       0.080200
     51 H15          3.2530     2.8860    -1.9110 h1         1 599       0.132200
     52 H15A         4.4580     3.1750    -0.6480 h1         1 599       0.132200
     53 H30          5.3040     0.5620    -2.9390 hc         1 599       0.104200
     54 H30A         6.2340     1.6720    -3.9280 hc         1 599       0.104200
     55 H31          7.3830     0.6200    -4.8240 h1         1 599       0.204200
     56 H31A         8.2410     0.2610    -3.3240 h1         1 599       0.204200
     57 H33          9.4800     2.7350    -2.2700 h1         1 599       0.081200
     58 H33A         9.5080     1.3640    -1.0880 h1         1 599       0.081200
     59 H41          9.8190     2.0790     0.4530 ha         1 599       0.149000
     60 H42         11.5290     3.0640     1.9230 ha         1 599       0.153000
     61 H45          7.3910     5.5820     0.9070 ha         1 599       0.158000
     62 H58         10.2040    10.6030     2.3730 ha         1 599       0.120000
     63 H59         10.1510    12.8770     3.3020 ha         1 599       0.158500
     64 H61          6.6770    11.5990     5.0920 ha         1 599       0.158500
     65 H62          6.9280     9.6190     4.2530 ha         1 599       0.120000
     66 H70          9.3890    -1.0970    -4.8880 h1         1 599       0.051200
     67 H70A         8.0600    -1.6650    -3.8680 h1         1 599       0.051200
     68 HO71         9.8630    -3.1840    -4.3740 ho         1 599       0.414000
@<TRIPOS>BOND
     1     6     1 1   
     2     1     2 1   
     3     1    39 1   
     4     1    40 1   
     5     2     7 1   
     6     2     3 1   
     7     4     3 1   
     8     3    41 1   
     9     3    42 1   
    10     5     4 1   
    11     4    43 1   
    12     4    44 1   
    13     6     5 1   
    14     6    45 1   
    15     6    46 1   
    16     7     8 1   
    17     7    47 1   
    18     7    48 1   
    19     8     9 1   
    20     8    49 1   
    21     8    50 1   
    22    10     9 1   
    23     9    51 1   
    24     9    52 1   
    25    11    10 1   
    26    10    14 1   
    27    12    11 2   
    28    19    12 1   
    29    12    13 1   
    30    13    18 1   
    31    13    14 2   
    32    14    15 1   
    33    15    16 1   
    34    15    53 1   
    35    15    54 1   
    36    17    16 1   
    37    16    55 1   
    38    16    56 1   
    39    18    17 1   
    40    17    33 1   
    41    18    57 1   
    42    18    58 1   
    43    24    19 ar  
    44    20    19 ar  
    45    21    20 ar  
    46    20    59 1   
    47    22    21 ar  
    48    21    60 1   
    49    37    22 1   
    50    23    22 ar  
    51    25    23 1   
    52    23    24 ar  
    53    24    61 1   
    54    26    25 3   
    55    27    26 1   
    56    32    27 ar  
    57    28    27 ar  
    58    29    28 ar  
    59    28    62 1   
    60    30    29 ar  
    61    29    63 1   
    62    38    30 1   
    63    30    31 ar  
    64    31    32 ar  
    65    31    64 1   
    66    32    65 1   
    67    36    33 2   
    68    33    34 1   
    69    34    35 1   
    70    34    66 1   
    71    34    67 1   
    72    35    68 1   
@<TRIPOS>SUBSTRUCTURE
     1 599         1 TEMP              0 ****  ****    0 ROOT
