@<TRIPOS>MOLECULE
599
   68    73     1     0     0
SMALL
bcc


@<TRIPOS>ATOM
      1 C1           0.0000     0.0000     0.0000 c3         1 599      -0.377500
      2 N2           1.4700     0.0000     0.0000 n3         1 599       0.268000
      3 C3           1.9920     0.0000     1.3740 c3         1 599      -0.377500
      4 C4           1.4680    -1.2330     2.1130 c3         1 599      -0.411500
      5 O5           0.0380    -1.2330     2.0770 os         1 599       0.942000
      6 C6          -0.5040    -1.2340     0.7530 c3         1 599      -0.411500
      7 C13          1.9960     1.1400    -0.7630 c3         1 599      -0.138000
      8 C14          3.5050     1.2530    -0.5370 c3         1 599      -0.155000
      9 C15          4.0530     2.4390    -1.3320 c3         1 599      -0.222000
     10 N16          5.4980     2.5470    -1.1160 na         1 599       0.331000
     11 N21          6.1260     3.2830    -0.1000 n2         1 599      -0.230000
     12 C22          7.4300     3.1380    -0.2330 c2         1 599       0.032000
     13 C23          7.6560     2.3050    -1.3390 c2         1 599      -0.272000
     14 C24          6.4530     1.9520    -1.8530 c2         1 599      -0.169000
     15 C30          6.2670     1.0470    -3.0450 c3         1 599      -0.133000
     16 C31          7.5890     0.9700    -3.8190 c3         1 599      -0.443000
     17 N32          8.6940     0.7730    -2.8710 nx         1 599       0.279000
     18 C33          8.9800     1.8480    -1.9010 c3         1 599      -0.003000
     19 C39          8.4710     3.7460     0.6310 ca         1 599      -0.013000
     20 C41          9.6460     3.0470     0.9070 ca         1 599      -0.087000
     21 C42         10.6170     3.6100     1.7110 ca         1 599      -0.099000
     22 C43         10.4340     4.8690     2.2480 ca         1 599      -0.103000
     23 C44          9.2610     5.5810     1.9790 ca         1 599       0.062000
     24 C45          8.2790     5.0160     1.1620 ca         1 599      -0.053000
     25 C52          9.0680     6.8870     2.5340 c1         1 599      -0.130000
     26 C53          8.9100     7.9650     2.9710 c1         1 599      -0.079000
     27 C54          8.6680     9.6830     3.4970 ca         1 599       0.166000
     28 C58          9.5140    10.7730     3.1900 ca         1 599      -0.119000
     29 C59          9.4050    12.1330     3.5540 ca         1 599      -0.092000
     30 C60          8.4570    12.3680     4.2110 ca         1 599      -0.055000
     31 C61          7.5890    11.3750     4.5530 ca         1 599      -0.092000
     32 C62          7.8200    10.2270     4.1570 ca         1 599      -0.119000
     33 C69          9.4280    -0.3580    -2.8910 c2         1 599       0.110000
     34 C70          9.1190    -1.4380    -3.8960 c3         1 599       0.046000
     35 O71         10.0280    -2.5270    -3.7190 oh         1 599      -0.273000
     36 O77         10.3370    -0.5050    -2.1020 o          1 599      -0.334000
     37 Cl81        11.6600     5.5690     3.2590 cl         1 599       0.068000
     38 Cl83         7.6680    14.0390     4.2700 cl         1 599      -0.010000
     39 H1          -0.3500     0.1170    -1.0180 h1         1 599       0.111000
     40 H1A         -0.3500    -0.9470     0.3910 h1         1 599       0.111000
     41 H3           3.0680     0.1180     1.3400 h1         1 599       0.111000
     42 H3A          1.7510    -0.9470     1.8400 h1         1 599       0.111000
     43 H4           1.9460    -1.2900     3.0830 h1         1 599      -0.036500
     44 H4A          0.3970    -1.1320     2.2480 h1         1 599      -0.036500
     45 H6          -0.2500    -1.1330     1.8020 h1         1 599      -0.036500
     46 H6A         -1.5810    -1.2920     0.6510 h1         1 599      -0.036500
     47 H13          1.1950     1.8420    -0.9620 h1         1 599       0.093500
     48 H13A         2.4090     0.7880    -1.7000 h1         1 599       0.093500
     49 H14          3.8920     0.2980    -0.2010 hc         1 599       0.092500
     50 H14A         3.7020     2.0070     0.2150 hc         1 599       0.092500
     51 H15          3.2530     2.8860    -1.9110 h1         1 599       0.127000
     52 H15A         4.4580     3.1750    -0.6480 h1         1 599       0.127000
     53 H30          5.3040     0.5620    -2.9390 hc         1 599       0.118000
     54 H30A         6.2340     1.6720    -3.9280 hc         1 599       0.118000
     55 H31          7.3830     0.6200    -4.8240 hx         1 599       0.158000
     56 H31A         8.2410     0.2610    -3.3240 DU         1 599       0.115000
     57 H33          9.4800     2.7350    -2.2700 hx         1 599       0.092500
     58 H33A         9.5080     1.3640    -1.0880 hx         1 599       0.092500
     59 H41          9.8190     2.0790     0.4530 ha         1 599       0.124000
     60 H42         11.5290     3.0640     1.9230 ha         1 599       0.119000
     61 H45          7.3910     5.5820     0.9070 ha         1 599       0.125000
     62 H58         10.2040    10.6030     2.3730 ha         1 599       0.088500
     63 H59         10.1510    12.8770     3.3020 ha         1 599       0.128500
     64 H61          6.6770    11.5990     5.0920 ha         1 599       0.128500
     65 H62          6.9280     9.6190     4.2530 ha         1 599       0.088500
     66 H70          9.3890    -1.0970    -4.8880 h1         1 599       0.044000
     67 H70A         8.0600    -1.6650    -3.8680 h1         1 599       0.044000
     68 HO71         9.8630    -3.1840    -4.3740 ho         1 599       0.190000
@<TRIPOS>BOND
     1     1     2 1   
     2     1     6 1   
     3     1    39 1   
     4     1    40 1   
     5     2     3 1   
     6     2     7 1   
     7     3     4 1   
     8     3    41 1   
     9     3    42 1   
    10     4     5 1   
    11     4    43 1   
    12     4    44 1   
    13     5     6 1   
    14     6    45 1   
    15     6    46 1   
    16     7     8 1   
    17     7    47 1   
    18     7    48 1   
    19     8     9 1   
    20     8    49 1   
    21     8    50 1   
    22     9    10 1   
    23     9    51 1   
    24     9    52 1   
    25    10    11 1   
    26    10    14 1   
    27    11    12 1   
    28    12    13 1   
    29    12    19 1   
    30    13    14 1   
    31    13    18 1   
    32    14    15 1   
    33    15    16 1   
    34    15    53 1   
    35    15    54 1   
    36    16    17 1   
    37    16    55 1   
    38    16    56 1   
    39    17    18 1   
    40    17    33 1   
    41    17    56 1   
    42    18    57 1   
    43    18    58 1   
    44    19    20 1   
    45    19    24 1   
    46    20    21 1   
    47    20    59 1   
    48    21    22 1   
    49    21    60 1   
    50    22    23 1   
    51    22    37 1   
    52    23    24 1   
    53    23    25 1   
    54    24    61 1   
    55    25    26 1   
    56    26    27 1   
    57    27    28 1   
    58    27    32 1   
    59    28    29 1   
    60    28    62 1   
    61    29    30 1   
    62    29    63 1   
    63    30    31 1   
    64    30    38 1   
    65    31    32 1   
    66    31    64 1   
    67    32    65 1   
    68    33    34 1   
    69    33    36 1   
    70    34    35 1   
    71    34    66 1   
    72    34    67 1   
    73    35    68 1   
@<TRIPOS>SUBSTRUCTURE
     1 599         1 TEMP              0 ****  ****    0 ROOT
