@<TRIPOS>MOLECULE
molecule
   37    37     1     0     0
SMALL
bcc


@<TRIPOS>ATOM
      1 C2           0.0000     0.0000     0.0000 cx         1 59A      -0.005900
      2 O1           1.4290     0.0000     0.0000 op         1 59A      -0.322600
      3 C3           0.8170     0.0000     1.2930 cx         1 59A      -0.008900
      4 C4           0.8670    -1.2750     2.0950 c          1 59A       0.670100
      5 O4           1.9070    -1.8910     2.1900 o          1 59A      -0.584100
      6 N1          -0.2440    -1.7320     2.7050 ns         1 59A      -0.538900
      7 C5          -0.1960    -2.9710     3.4830 c3         1 59A       0.006700
      8 C6          -0.3910    -4.1500     2.5640 c          1 59A       0.892600
      9 O5          -0.3850    -5.3970     3.0610 o          1 59A      -0.838800
     10 C10         -1.3070    -2.9560     4.5360 c3         1 59A      -0.059700
     11 C12         -1.1800    -4.1920     5.4290 c3         1 59A      -0.083400
     12 C11         -2.6700    -2.9680     3.8400 c3         1 59A      -0.090100
     13 C13         -2.2110    -4.1140     6.5570 c3         1 59A      -0.094100
     14 OA          -0.5540    -3.9720     1.3800 o          1 59A      -0.838800
     15 C7          -0.7010     1.2770    -0.3870 c          1 59A       0.650100
     16 O2          -0.3580     1.8790    -1.3770 o          1 59A      -0.536000
     17 O3          -1.7080     1.7450     0.3680 os         1 59A      -0.437900
     18 C8          -2.3840     2.9740    -0.0050 c3         1 59A       0.155400
     19 C9          -3.4830     3.2820     1.0140 c3         1 59A      -0.096100
     20 H2          -0.4550    -0.9500    -0.2510 h1         1 59A       0.156700
     21 H3           0.8490     0.9510     1.8110 h1         1 59A       0.093700
     22 HN1         -1.0910    -1.1990     2.6650 hn         1 59A       0.300500
     23 H5           0.7660    -3.0520     3.9740 h1         1 59A       0.074700
     24 H10         -1.2180    -2.0620     5.1420 hc         1 59A       0.013700
     25 H121        -0.1840    -4.2310     5.8520 hc         1 59A       0.077200
     26 H122        -1.3570    -5.0830     4.8390 hc         1 59A       0.077200
     27 H111        -3.3500    -2.3080     4.3660 hc         1 59A       0.031700
     28 H112        -3.0680    -3.9750     3.8430 hc         1 59A       0.031700
     29 H113        -2.5560    -2.6280     2.8170 hc         1 59A       0.031700
     30 H131        -3.1760    -4.4400     6.1880 hc         1 59A       0.016367
     31 H132        -2.2850    -3.0920     6.9080 hc         1 59A       0.016367
     32 H133        -1.9010    -4.7550     7.3740 hc         1 59A       0.016367
     33 H81         -1.6690     3.7880    -0.0230 h1         1 59A       0.043700
     34 H82         -2.8250     2.8600    -0.9880 h1         1 59A       0.043700
     35 H91         -4.1460     2.4300     1.0980 hc         1 59A       0.046033
     36 H92         -4.0470     4.1470     0.6870 hc         1 59A       0.046033
     37 H93         -3.0340     3.4860     1.9780 hc         1 59A       0.046033
@<TRIPOS>BOND
     1     1     2 1   
     2     1     3 1   
     3     1    15 1   
     4     1    20 1   
     5     2     3 1   
     6     3     4 1   
     7     3    21 1   
     8     4     5 2   
     9     4     6 1   
    10     6     7 1   
    11     6    22 1   
    12     7     8 1   
    13     7    10 1   
    14     7    23 1   
    15     8     9 1   
    16     8    14 1   
    17    10    11 1   
    18    10    12 1   
    19    10    24 1   
    20    11    13 1   
    21    11    25 1   
    22    11    26 1   
    23    12    27 1   
    24    12    28 1   
    25    12    29 1   
    26    13    30 1   
    27    13    31 1   
    28    13    32 1   
    29    15    16 2   
    30    15    17 1   
    31    17    18 1   
    32    18    19 1   
    33    18    33 1   
    34    18    34 1   
    35    19    35 1   
    36    19    36 1   
    37    19    37 1   
@<TRIPOS>SUBSTRUCTURE
     1 59A         1 TEMP              0 ****  ****    0 ROOT
