@<TRIPOS>MOLECULE
molecule
   45    49     1     0     0
SMALL
bcc


@<TRIPOS>ATOM
      1 C20          0.0000     0.0000     0.0000 ca         1 59B      -0.152500
      2 C11         -1.2170     2.1030     6.5080 c3         1 59B       0.120900
      3 C14         -0.9200     0.6760     6.0360 c3         1 59B       0.063000
      4 C22          1.3920     0.0000     0.0000 ca         1 59B       0.166600
      5 C17          0.0090     0.0090     2.4020 ca         1 59B      -0.160600
      6 C18         -0.6900     0.0040     1.1920 ca         1 59B      -0.075000
      7 O01         -1.7420    -0.6460     3.8000 o          1 59B      -0.604100
      8 C02         -0.7270     0.0130     3.6810 c          1 59B       0.681700
      9 N03         -0.2740     0.7480     4.7160 n          1 59B      -0.491800
     10 C04          0.8800     1.6470     4.5600 c3         1 59B       0.063000
     11 C07          0.4950     3.0280     5.1040 c3         1 59B       0.120900
     12 O10         -0.0220     2.8830     6.4280 os         1 59B      -0.419600
     13 N23          2.0860     0.0020    -1.2070 nu         1 59B      -0.739300
     14 C25          1.5680     0.6690    -2.3020 cc         1 59B       0.749200
     15 N26          0.4780     1.3930    -2.1770 nd         1 59B      -0.754000
     16 C27         -0.0490     2.0550    -3.2370 ca         1 59B       0.442600
     17 C28         -1.2120     2.8210    -3.0740 ca         1 59B      -0.167300
     18 C30         -1.7470     3.4930    -4.1470 ca         1 59B      -0.104000
     19 C32         -1.1420     3.4220    -5.3950 ca         1 59B      -0.127000
     20 C34          0.0020     2.6750    -5.5740 ca         1 59B      -0.095000
     21 C36          0.5590     1.9870    -4.5020 ca         1 59B      -0.123600
     22 N37          1.7080     1.2350    -4.6740 na         1 59B       0.228000
     23 N38          2.4710     0.9850    -5.6790 nc         1 59B      -0.226400
     24 N39          3.4300     0.2120    -5.2990 nd         1 59B      -0.015000
     25 N40          3.3070    -0.0550    -4.0430 nd         1 59B      -0.099000
     26 C41          2.2340     0.5750    -3.6020 cc         1 59B      -0.229600
     27 C42          2.0910     0.0000     1.2030 ca         1 59B      -0.152500
     28 C44          1.4070    -0.0020     2.3980 ca         1 59B      -0.075000
     29 H1          -0.5410    -0.0040    -0.9380 ha         1 59B       0.150000
     30 H2          -1.5640     2.0780     7.5340 h1         1 59B       0.055950
     31 H3          -1.9780     2.5410     5.8740 h1         1 59B       0.055950
     32 H4          -1.8450     0.1180     5.9580 h1         1 59B       0.066700
     33 H5          -0.2540     0.1910     6.7400 h1         1 59B       0.066700
     34 H6          -1.7730     0.0040     1.1910 ha         1 59B       0.149000
     35 H7           1.7220     1.2580     5.1190 h1         1 59B       0.066700
     36 H8           1.1380     1.7290     3.5110 h1         1 59B       0.066700
     37 H9          -0.2620     3.4680     4.4670 h1         1 59B       0.055950
     38 H10          1.3720     3.6640     5.1260 h1         1 59B       0.055950
     39 H11          2.9540    -0.4900    -1.2860 hn         1 59B       0.477800
     40 H12         -1.6900     2.8810    -2.1030 ha         1 59B       0.160000
     41 H13         -2.6460     4.0830    -4.0180 ha         1 59B       0.143000
     42 H14         -1.5730     3.9560    -6.2330 ha         1 59B       0.145000
     43 H15          0.4680     2.6240    -6.5500 ha         1 59B       0.160000
     44 H16          3.1740    -0.0040     1.2000 ha         1 59B       0.150000
     45 H17          1.9510    -0.0000     3.3340 ha         1 59B       0.149000
@<TRIPOS>BOND
     1    11    12 1   
     2    11    10 1   
     3    12     2 1   
     4    10     9 1   
     5     2     3 1   
     6     9     3 1   
     7     9     8 1   
     8     7     8 2   
     9     8     5 1   
    10     5     6 ar  
    11     5    28 ar  
    12     6     1 ar  
    13    28    27 ar  
    14     1     4 ar  
    15    27     4 ar  
    16     4    13 1   
    17    13    14 1   
    18    15    14 2   
    19    15    16 1   
    20    14    26 1   
    21    17    16 ar  
    22    17    18 ar  
    23    16    21 ar  
    24    26    25 2   
    25    26    22 1   
    26    18    19 ar  
    27    25    24 1   
    28    21    22 1   
    29    21    20 ar  
    30    22    23 1   
    31    19    20 ar  
    32    24    23 2   
    33     1    29 1   
    34     2    30 1   
    35     2    31 1   
    36     3    32 1   
    37     3    33 1   
    38     6    34 1   
    39    10    35 1   
    40    10    36 1   
    41    11    37 1   
    42    11    38 1   
    43    13    39 1   
    44    17    40 1   
    45    18    41 1   
    46    19    42 1   
    47    20    43 1   
    48    27    44 1   
    49    28    45 1   
@<TRIPOS>SUBSTRUCTURE
     1 59B         1 TEMP              0 ****  ****    0 ROOT
