@<TRIPOS>MOLECULE
59D
   65    69     1     0     0
SMALL
bcc


@<TRIPOS>ATOM
      1 N1           0.0000     0.0000     0.0000 na         1 59D       0.373900
      2 C13          0.3800     7.3920    -6.6470 ca         1 59D      -0.131500
      3 C15         -0.3690     5.8910    -8.3600 ca         1 59D      -0.131500
      4 C17          1.3920     2.2310    -4.2790 cc         1 59D      -0.324600
      5 C20          2.5440     0.1480    -3.6130 c3         1 59D       0.062000
      6 C21          0.3290     0.7310    -2.5380 c3         1 59D       0.122300
      7 C22          0.3310     1.8790    -3.5130 cd         1 59D      -0.228600
      8 C24          1.3770     0.0000     0.0000 cc         1 59D      -0.408900
      9 C26          0.6420     0.0000     2.1090 cd         1 59D      -0.196000
     10 C01         -8.0730     5.9300    -4.2380 c3         1 59D      -0.028100
     11 C02         -7.7360     4.4560    -4.4690 c3         1 59D       0.249400
     12 O01         -8.8850     3.6540    -4.1810 oh         1 59D      -0.585800
     13 C03         -6.6020     4.0510    -3.5630 ca         1 59D      -0.095300
     14 C04         -6.8630     3.6450    -2.2670 ca         1 59D      -0.081000
     15 C05         -5.8250     3.2730    -1.4330 ca         1 59D      -0.090000
     16 C06         -4.5230     3.3050    -1.8930 ca         1 59D      -0.103000
     17 C07         -4.2570     3.7120    -3.1940 ca         1 59D      -0.101400
     18 N01         -2.9390     3.7450    -3.6630 ns         1 59D      -0.012100
     19 O02         -2.3770     1.9960    -2.4140 o          1 59D      -0.666100
     20 C09         -0.6960     2.7820    -3.8310 cd         1 59D       0.256800
     21 N02         -0.2080     3.6010    -4.7470 nc         1 59D      -0.643800
     22 N03          1.0130     3.2900    -5.0150 na         1 59D       0.644400
     23 C11          1.0830     5.1030    -6.6260 ca         1 59D      -0.129300
     24 C12          1.0950     6.3650    -6.0610 ca         1 59D      -0.045000
     25 C14         -0.3520     7.1560    -7.7980 ca         1 59D       0.119900
     26 F           -1.0520     8.1600    -8.3710 f          1 59D      -0.125900
     27 C16          0.3470     4.8650    -7.7720 ca         1 59D      -0.045000
     28 C18          2.7240     1.5290    -4.2560 c3         1 59D       0.031600
     29 C19          3.2410     1.3630    -5.6870 c3         1 59D      -0.012100
     30 N04          1.7280     0.2810    -2.3960 n          1 59D      -0.184800
     31 C23          2.2430    -0.0010    -1.1840 c          1 59D       0.664700
     32 O1           3.4280    -0.2550    -1.0700 o          1 59D      -0.646100
     33 C25          1.7930     0.0000     1.3140 cd         1 59D      -0.077000
     34 C27         -0.4330     0.0060     1.2850 cc         1 59D      -0.305300
     35 C1          -5.3030     4.0790    -4.0300 ca         1 59D      -0.122000
     36 H1          -0.5840     0.0020    -0.8130 hn         1 59D       0.151700
     37 H2           2.1840     3.2850    -6.7490 h1         1 59D       0.046700
     38 H3           2.7300     4.3910    -5.4800 h1         1 59D       0.046700
     39 H4           0.3910     8.3810    -6.2060 ha         1 59D       0.122500
     40 H5          -0.9430     5.7050    -9.2590 ha         1 59D       0.122500
     41 H6           2.0090    -0.4830    -4.3120 h1         1 59D       0.044700
     42 H7           3.5210    -0.2210    -3.3250 h1         1 59D       0.044700
     43 H8          -0.0150     1.0950    -1.5770 h1         1 59D       0.048700
     44 H9          -0.2530    -0.0790    -2.9590 h1         1 59D       0.048700
     45 H10          0.6150     0.0010     3.1920 ha         1 59D       0.126000
     46 H12         -7.3530     6.3620    -3.5530 hc         1 59D       0.013367
     47 H13         -8.0380     6.4610    -5.1810 hc         1 59D       0.013367
     48 H14         -7.4440     4.3090    -5.5020 h1         1 59D      -0.001300
     49 H15         -9.2820     3.3730    -4.9880 ho         1 59D       0.389000
     50 H16         -7.8840     3.6200    -1.9050 ha         1 59D       0.119000
     51 H17         -6.0330     2.9560    -0.4180 ha         1 59D       0.104000
     52 H18         -3.7100     3.0140    -1.2390 ha         1 59D       0.142000
     53 H19         -2.6440     4.4790    -4.2750 hn         1 59D       0.181500
     54 H20          1.6680     6.5490    -5.1600 ha         1 59D       0.109500
     55 H21          0.3350     3.8750    -8.2120 ha         1 59D       0.109500
     56 H22          3.4300     2.1090    -3.6740 hc         1 59D       0.045700
     57 H23          3.8460     2.2210    -5.9540 hc         1 59D       0.011367
     58 H24          3.8420     0.4630    -5.7520 hc         1 59D       0.011367
     59 H25          2.4020     1.2860    -6.3680 hc         1 59D       0.011367
     60 H26          2.8180    -0.0020     1.6650 ha         1 59D       0.136000
     61 H27         -1.4690     0.0070     1.6010 h4         1 59D       0.144000
     62 H28         -5.0990     4.3970    -5.0460 ha         1 59D       0.106000
     63 C10          1.8630     3.9840    -5.9860 c3         1 59D       0.006600
     64 C08         -2.0560     2.8120    -3.2550 c          1 59D       0.523600
     65 H11         -9.0670     6.0110    -3.8140 hc         1 59D       0.013367
@<TRIPOS>BOND
     1     1     8 1   
     2     1    34 1   
     3     1    36 1   
     4     2    24 ar  
     5     2    25 ar  
     6     2    39 1   
     7     3    25 ar  
     8     3    27 ar  
     9     3    40 1   
    10     4     7 2   
    11     4    22 1   
    12     4    28 1   
    13     5    28 1   
    14     5    30 1   
    15     5    41 1   
    16     5    42 1   
    17     6     7 1   
    18     6    30 1   
    19     6    43 1   
    20     6    44 1   
    21     7    20 1   
    22     8    31 1   
    23     8    33 2   
    24     9    33 1   
    25     9    34 2   
    26     9    45 1   
    27    10    11 1   
    28    10    46 1   
    29    10    47 1   
    30    10    65 1   
    31    11    12 1   
    32    11    13 1   
    33    11    48 1   
    34    12    49 1   
    35    13    14 ar  
    36    13    35 ar  
    37    14    15 ar  
    38    14    50 1   
    39    15    16 ar  
    40    15    51 1   
    41    16    17 ar  
    42    16    52 1   
    43    17    18 1   
    44    17    35 ar  
    45    18    53 1   
    46    18    64 1   
    47    19    64 2   
    48    20    21 2   
    49    20    64 1   
    50    21    22 1   
    51    22    63 1   
    52    23    24 ar  
    53    23    27 ar  
    54    23    63 1   
    55    24    54 1   
    56    25    26 1   
    57    27    55 1   
    58    28    29 1   
    59    28    56 1   
    60    29    57 1   
    61    29    58 1   
    62    29    59 1   
    63    30    31 1   
    64    31    32 2   
    65    33    60 1   
    66    34    61 1   
    67    35    62 1   
    68    37    63 1   
    69    38    63 1   
@<TRIPOS>SUBSTRUCTURE
     1 59D         1 TEMP              0 ****  ****    0 ROOT
