@<TRIPOS>MOLECULE
59E
   52    56     1     0     0
SMALL
bcc


@<TRIPOS>ATOM
      1 CAW          0.0000     0.0000     0.0000 c3         1 59E       0.270700
      2 OAU          1.4520     0.0000     0.0000 os         1 59E      -0.418900
      3 CAT          2.0620     0.0000     1.1950 c          1 59E       0.687100
      4 OAV          1.4040    -0.0000     2.2090 o          1 59E      -0.562000
      5 CAS          3.5670     0.0000     1.2730 c3         1 59E      -0.117400
      6 CAI          4.0020     0.0000     2.7400 c3         1 59E       0.147200
      7 NAH          3.6190     1.2680     3.3720 n2         1 59E      -0.461900
      8 CAJ          5.5020    -0.1230     2.8290 cc         1 59E       0.124800
      9 NAN          6.1860    -1.0700     3.4050 nd         1 59E      -0.296000
     10 NAO          7.4440    -0.8110     3.3120 nd         1 59E      -0.326000
     11 CAP          7.6220     0.3090     2.6600 cc         1 59E       0.156800
     12 CAR          8.9410     0.9690     2.3530 c3         1 59E       0.008600
     13 NAK          6.3900     0.7630     2.3120 na         1 59E       0.298200
     14 CAE          6.0770     1.8880     1.5450 ca         1 59E      -0.215200
     15 CAF          6.9330     2.2340     0.5050 ca         1 59E      -0.068000
     16 CAA          6.6520     3.3170    -0.3020 ca         1 59E      -0.188000
     17 CAB          5.5040     4.0670    -0.0810 ca         1 59E       0.165100
     18 OAL          5.2190     5.1240    -0.8870 os         1 59E      -0.299900
     19 CAM          6.1420     5.4050    -1.9400 c3         1 59E       0.243700
     20 CAC          4.6530     3.7410     0.9550 ca         1 59E      -0.108000
     21 CAD          4.9370     2.6540     1.7950 ca         1 59E      -0.095900
     22 CAG          4.0360     2.4030     2.9270 ce         1 59E       0.471500
     23 CAQ          3.5490     3.6000     3.6440 ca         1 59E      -0.091900
     24 CBB          4.4490     4.4220     4.3510 ca         1 59E      -0.079800
     25 CBE          5.8920     4.3880     4.5770 cc         1 59E      -0.170200
     26 CBD          6.1940     5.4510     5.3420 cd         1 59E      -0.262100
     27 NBC          5.0610     6.1610     5.6220 na         1 59E       0.356600
     28 CBA          3.9730     5.5580     5.0300 ca         1 59E      -0.229200
     29 CAZ          2.6160     5.8580     4.9970 ca         1 59E      -0.092000
     30 CAY          1.7420     5.0470     4.3020 ca         1 59E      -0.090000
     31 CAX          2.1970     3.9290     3.6240 ca         1 59E      -0.093000
     32 H1          -0.3610     0.9140     0.4550 h1         1 59E       0.002033
     33 H2          -0.3610    -0.8510     0.5640 h1         1 59E       0.002033
     34 H3          -0.3610    -0.0630    -1.0190 h1         1 59E       0.002033
     35 H4           3.9540    -0.8840     0.7820 hc         1 59E       0.052200
     36 H5           3.9540     0.8850     0.7820 hc         1 59E       0.052200
     37 H6           3.5360    -0.8240     3.2660 h1         1 59E       0.084700
     38 H7           9.2420     0.7230     1.3420 hc         1 59E       0.017033
     39 H8           9.6920     0.6150     3.0490 hc         1 59E       0.017033
     40 H9           8.8380     2.0430     2.4480 hc         1 59E       0.017033
     41 H10          7.8290     1.6510     0.3300 ha         1 59E       0.127000
     42 H11          7.3080     3.5610    -1.1290 ha         1 59E       0.128000
     43 H12          7.1190     5.6100    -1.5190 h1         1 59E       0.000700
     44 H13          6.2070     4.5490    -2.6010 h1         1 59E       0.000700
     45 H14          5.8020     6.2680    -2.4990 h1         1 59E       0.000700
     46 H15          3.7600     4.3310     1.1220 ha         1 59E       0.139000
     47 H16          6.5860     3.6460     4.2010 ha         1 59E       0.128000
     48 H17          7.1890     5.7070     5.6860 h4         1 59E       0.138000
     49 H18          5.0260     6.9940     6.1750 hn         1 59E       0.113700
     50 H19          2.2430     6.7290     5.5210 ha         1 59E       0.098000
     51 H20          0.6880     5.2940     4.2790 ha         1 59E       0.103000
     52 H21          1.4970     3.3030     3.0830 ha         1 59E       0.115000
@<TRIPOS>BOND
     1     1     2 1   
     2     1    32 1   
     3     1    33 1   
     4     1    34 1   
     5     2     3 1   
     6     3     4 2   
     7     3     5 1   
     8     5     6 1   
     9     5    35 1   
    10     5    36 1   
    11     6     7 1   
    12     6     8 1   
    13     6    37 1   
    14     7    22 2   
    15     8     9 2   
    16     8    13 1   
    17     9    10 1   
    18    10    11 2   
    19    11    12 1   
    20    11    13 1   
    21    12    38 1   
    22    12    39 1   
    23    12    40 1   
    24    13    14 1   
    25    14    15 ar  
    26    14    21 ar  
    27    15    16 ar  
    28    15    41 1   
    29    16    17 ar  
    30    16    42 1   
    31    17    18 1   
    32    17    20 ar  
    33    18    19 1   
    34    19    43 1   
    35    19    44 1   
    36    19    45 1   
    37    20    21 ar  
    38    20    46 1   
    39    21    22 1   
    40    22    23 1   
    41    23    24 ar  
    42    23    31 ar  
    43    24    25 1   
    44    24    28 ar  
    45    25    26 2   
    46    25    47 1   
    47    26    27 1   
    48    26    48 1   
    49    27    28 1   
    50    27    49 1   
    51    28    29 ar  
    52    29    30 ar  
    53    29    50 1   
    54    30    31 ar  
    55    30    51 1   
    56    31    52 1   
@<TRIPOS>SUBSTRUCTURE
     1 59E         1 TEMP              0 ****  ****    0 ROOT
