@<TRIPOS>MOLECULE
molecule
   52    56     1     0     0
SMALL
bcc


@<TRIPOS>ATOM
      1 CAW          0.0000     0.0000     0.0000 c3         1 59E       0.140700
      2 OAU          1.4520     0.0000     0.0000 os         1 59E      -0.431900
      3 CAT          2.0620     0.0000     1.1950 c          1 59E       0.626100
      4 OAV          1.4040    -0.0000     2.2090 o          1 59E      -0.528000
      5 CAS          3.5670     0.0000     1.2730 c3         1 59E      -0.153400
      6 CAI          4.0020     0.0000     2.7400 c3         1 59E       0.127200
      7 NAH          3.6190     1.2680     3.3720 n2         1 59E      -0.537900
      8 CAJ          5.5020    -0.1230     2.8290 cc         1 59E       0.340800
      9 NAN          6.1860    -1.0700     3.4050 nd         1 59E      -0.330000
     10 NAO          7.4440    -0.8110     3.3120 nd         1 59E      -0.349000
     11 CAP          7.6220     0.3090     2.6600 cc         1 59E       0.365800
     12 CAR          8.9410     0.9690     2.3530 c3         1 59E      -0.106400
     13 NAK          6.3900     0.7630     2.3120 na         1 59E      -0.236800
     14 CAE          6.0770     1.8880     1.5450 ca         1 59E      -0.030200
     15 CAF          6.9330     2.2340     0.5050 ca         1 59E      -0.106000
     16 CAA          6.6520     3.3170    -0.3020 ca         1 59E      -0.196000
     17 CAB          5.5040     4.0670    -0.0810 ca         1 59E       0.142100
     18 OAL          5.2190     5.1240    -0.8870 os         1 59E      -0.320900
     19 CAM          6.1420     5.4050    -1.9400 c3         1 59E       0.126700
     20 CAC          4.6530     3.7410     0.9550 ca         1 59E      -0.116000
     21 CAD          4.9370     2.6540     1.7950 ca         1 59E      -0.138900
     22 CAG          4.0360     2.4030     2.9270 ce         1 59E       0.518500
     23 CAQ          3.5490     3.6000     3.6440 ca         1 59E      -0.091900
     24 CBB          4.4490     4.4220     4.3510 ca         1 59E      -0.079800
     25 CBE          5.8920     4.3880     4.5770 cd         1 59E      -0.199200
     26 CBD          6.1940     5.4510     5.3420 cc         1 59E      -0.097100
     27 NBC          5.0610     6.1610     5.6220 na         1 59E      -0.182400
     28 CBA          3.9730     5.5580     5.0300 ca         1 59E      -0.041200
     29 CAZ          2.6160     5.8580     4.9970 ca         1 59E      -0.131000
     30 CAY          1.7420     5.0470     4.3020 ca         1 59E      -0.114000
     31 CAX          2.1970     3.9290     3.6240 ca         1 59E      -0.117000
     32 H1          -0.3610     0.9140     0.4550 h1         1 59E       0.049700
     33 H2          -0.3610    -0.8510     0.5640 h1         1 59E       0.049700
     34 H3          -0.3610    -0.0630    -1.0190 h1         1 59E       0.049700
     35 H4           3.9540    -0.8840     0.7820 hc         1 59E       0.086200
     36 H5           3.9540     0.8850     0.7820 hc         1 59E       0.086200
     37 H6           3.5360    -0.8240     3.2660 h1         1 59E       0.132700
     38 H7           9.2420     0.7230     1.3420 hc         1 59E       0.059367
     39 H8           9.6920     0.6150     3.0490 hc         1 59E       0.059367
     40 H9           8.8380     2.0430     2.4480 hc         1 59E       0.059367
     41 H10          7.8290     1.6510     0.3300 ha         1 59E       0.149000
     42 H11          7.3080     3.5610    -1.1290 ha         1 59E       0.146000
     43 H12          7.1190     5.6100    -1.5190 h1         1 59E       0.044700
     44 H13          6.2070     4.5490    -2.6010 h1         1 59E       0.044700
     45 H14          5.8020     6.2680    -2.4990 h1         1 59E       0.044700
     46 H15          3.7600     4.3310     1.1220 ha         1 59E       0.167000
     47 H16          6.5860     3.6460     4.2010 ha         1 59E       0.155000
     48 H17          7.1890     5.7070     5.6860 h4         1 59E       0.165000
     49 H18          5.0260     6.9940     6.1750 hn         1 59E       0.296700
     50 H19          2.2430     6.7290     5.5210 ha         1 59E       0.126000
     51 H20          0.6880     5.2940     4.2790 ha         1 59E       0.134000
     52 H21          1.4970     3.3030     3.0830 ha         1 59E       0.144000
@<TRIPOS>BOND
     1     4     3 2   
     2     1     2 1   
     3     3     2 1   
     4     3     5 1   
     5     5     6 1   
     6     6     8 1   
     7     6     7 1   
     8     9     8 2   
     9     9    10 1   
    10    26    25 2   
    11    26    27 1   
    12    25    24 1   
    13     8    13 1   
    14     7    22 2   
    15    10    11 2   
    16    27    28 1   
    17    24    28 ar  
    18    24    23 ar  
    19    22    23 1   
    20    22    21 1   
    21    13    11 1   
    22    13    14 1   
    23    11    12 1   
    24    28    29 ar  
    25    23    31 ar  
    26    21    14 ar  
    27    21    20 ar  
    28    14    15 ar  
    29    29    30 ar  
    30    15    16 ar  
    31    20    17 ar  
    32    31    30 ar  
    33    17    16 ar  
    34    17    18 1   
    35    18    19 1   
    36     1    32 1   
    37     1    33 1   
    38     1    34 1   
    39     5    35 1   
    40     5    36 1   
    41     6    37 1   
    42    12    38 1   
    43    12    39 1   
    44    12    40 1   
    45    15    41 1   
    46    16    42 1   
    47    19    43 1   
    48    19    44 1   
    49    19    45 1   
    50    20    46 1   
    51    25    47 1   
    52    26    48 1   
    53    27    49 1   
    54    29    50 1   
    55    30    51 1   
    56    31    52 1   
@<TRIPOS>SUBSTRUCTURE
     1 59E         1 TEMP              0 ****  ****    0 ROOT
