@<TRIPOS>MOLECULE
molecule
   65    67     1     0     0
SMALL
bcc


@<TRIPOS>ATOM
      1 C11          0.0000     0.0000     0.0000 c          1 59F       0.775100
      2 C13         -2.7320     0.7840    -2.2610 c3         1 59F       0.090000
      3 C14         -0.3130    -2.3500     2.7050 ca         1 59F      -0.094000
      4 C15          1.7700    -1.4140     3.4280 ca         1 59F      -0.094000
      5 C17         -0.7720     0.2500    -3.6070 c          1 59F       0.635500
      6 S01          0.8850     1.6220     7.4320 ss         1 59F      -0.437200
      7 O02         -1.9990     0.9830     3.2060 o          1 59F      -0.645100
      8 O05          1.2140     0.0000     0.0000 o          1 59F      -0.582100
      9 O06          1.2110     0.0860    -2.3450 o          1 59F      -0.497500
     10 O07         -0.2140     0.1300    -4.6780 o          1 59F      -0.587500
     11 O            1.7910    -5.0000     4.0400 oh         1 59F      -0.533100
     12 N01         -1.6890     1.5730     8.1770 n7         1 59F      -0.811200
     13 N02         -0.3990     0.8840     4.7390 ns         1 59F      -0.536900
     14 N03         -0.6750     0.0000     1.1670 ns         1 59F      -0.580900
     15 N04         -0.6740     0.0070    -1.1680 n          1 59F      -0.502400
     16 N05         -2.0920     0.5120    -3.5490 n          1 59F      -0.493800
     17 C01         -0.8040     1.0090     7.1480 c3         1 59F       0.259600
     18 C02         -1.2820     1.4480     5.7630 c3         1 59F       0.017700
     19 C03         -1.2570     2.9520     5.6750 c          1 59F       0.582900
     20 C07         -1.3290     1.1010     9.5160 c3         1 59F       0.050500
     21 C04         -0.0350     1.7540     9.9930 c3         1 59F      -0.047700
     22 C05          1.1470     1.2100     9.1840 c3         1 59F       0.046700
     23 C06         -0.8560     0.6910     3.4870 c          1 59F       0.666100
     24 C08          0.1770     1.4410    11.4760 c3         1 59F      -0.073100
     25 CA           0.0530     0.1110     2.4330 c3         1 59F       0.110000
     26 C09         -1.1470    -0.3950     9.4820 c          1 59F       0.860600
     27 C10          0.5160    -1.2560     2.8670 ca         1 59F      -0.105300
     28 C12         -2.1340    -0.0970    -1.1680 c3         1 59F       0.069000
     29 C16         -0.0010     0.1080    -2.3320 c          1 59F       0.634500
     30 C19         -2.8890     0.5240    -4.7770 c3         1 59F       0.106000
     31 C20          0.1090    -3.6040     3.1010 ca         1 59F      -0.149500
     32 C21          2.2020    -2.6680     3.8160 ca         1 59F      -0.149500
     33 C22          1.3700    -3.7660     3.6580 ca         1 59F       0.114100
     34 C23         -2.8950     1.9360    -5.3680 c3         1 59F      -0.114100
     35 H1          -3.7930     0.5810    -2.3410 h1         1 59F       0.060200
     36 H2          -2.5810     1.8250    -2.0010 h1         1 59F       0.060200
     37 H3          -1.3050    -2.2200     2.2900 ha         1 59F       0.135500
     38 H4           2.5370    -0.6490     3.4510 ha         1 59F       0.135500
     39 H6           1.5180    -5.1640     4.9280 ho         1 59F       0.426000
     40 H9           0.5530     0.6700     4.9620 hn         1 59F       0.340500
     41 H10         -1.6750    -0.0440     1.1670 hn         1 59F       0.329500
     42 H11         -0.8130    -0.0720     7.2150 h2         1 59F       0.142700
     43 H12         -2.2930     1.0940     5.6010 h1         1 59F       0.102700
     44 H13         -1.8850     3.5430     6.3310 h4         1 59F       0.013200
     45 H14         -2.1260     1.3520    10.2050 h1         1 59F       0.060700
     46 H15         -0.1010     2.8260     9.8530 hc         1 59F       0.045700
     47 H16          2.0660     1.6670     9.5310 h1         1 59F       0.081200
     48 H17          1.2020     0.1340     9.3000 h1         1 59F       0.081200
     49 H18          0.8330     0.5840    11.5740 hc         1 59F       0.032367
     50 H19          0.6260     2.2970    11.9660 hc         1 59F       0.032367
     51 H20         -0.7770     1.2200    11.9380 hc         1 59F       0.032367
     52 H21          0.9110     0.7580     2.3010 h1         1 59F       0.104700
     53 H22         -2.4180    -1.1270    -1.3470 h1         1 59F       0.068200
     54 H23         -2.5140     0.2220    -0.2050 h1         1 59F       0.068200
     55 H24         -3.9050     0.2230    -4.5520 h1         1 59F       0.057200
     56 H25         -2.4590    -0.1650    -5.4940 h1         1 59F       0.057200
     57 H26         -0.5210    -4.4680     2.9240 ha         1 59F       0.138500
     58 H27          3.1990    -2.7970     4.2190 ha         1 59F       0.138500
     59 H28         -3.5230     2.5780    -4.7630 hc         1 59F       0.043033
     60 H29         -1.8850     2.3260    -5.3800 hc         1 59F       0.043033
     61 H30         -3.2810     1.9020    -6.3800 hc         1 59F       0.043033
     62 O01         -0.5710     3.4980     4.8440 o          1 59F      -0.542100
     63 O03         -1.7780    -1.1260     8.5510 o          1 59F      -0.837300
     64 O04         -0.4320    -0.9340    10.2930 o          1 59F      -0.837300
     65 H7          -2.6360     1.3210     7.9780 hn         1 59F       0.361800
@<TRIPOS>BOND
     1    64    26 1   
     2    62    19 2   
     3    26    63 1   
     4    26    20 1   
     5     8     1 2   
     6    19    18 1   
     7    20    12 1   
     8    20    21 1   
     9    12    17 1   
    10    13    18 1   
    11    13    23 1   
    12    28     2 1   
    13    28    15 1   
    14     1    15 1   
    15     1    14 1   
    16     4    32 ar  
    17     4    27 ar  
    18    25    27 1   
    19    25    23 1   
    20    25    14 1   
    21    32    33 ar  
    22    18    17 1   
    23    27     3 ar  
    24     2    16 1   
    25    24    21 1   
    26    21    22 1   
    27    15    29 1   
    28    23     7 2   
    29    33    11 1   
    30    33    31 ar  
    31    17     6 1   
    32     3    31 ar  
    33    34    30 1   
    34     6    22 1   
    35    16    30 1   
    36    16     5 1   
    37    29     9 2   
    38    29     5 1   
    39     5    10 2   
    40     2    35 1   
    41     2    36 1   
    42     3    37 1   
    43     4    38 1   
    44    11    39 1   
    45    12    65 1   
    46    13    40 1   
    47    14    41 1   
    48    17    42 1   
    49    18    43 1   
    50    19    44 1   
    51    20    45 1   
    52    21    46 1   
    53    22    47 1   
    54    22    48 1   
    55    24    49 1   
    56    24    50 1   
    57    24    51 1   
    58    25    52 1   
    59    28    53 1   
    60    28    54 1   
    61    30    55 1   
    62    30    56 1   
    63    31    57 1   
    64    32    58 1   
    65    34    59 1   
    66    34    60 1   
    67    34    61 1   
@<TRIPOS>SUBSTRUCTURE
     1 59F         1 TEMP              0 ****  ****    0 ROOT
