@<TRIPOS>MOLECULE
59G
   56    59     1     0     0
SMALL
bcc


@<TRIPOS>ATOM
      1 C13         0.4410    1.2430    0.2010 c2        1 59G     -0.064000
      2 C15        -0.0740    1.0940    2.5710 c2        1 59G     -0.191000
      3 C17        -1.6310    0.1860    0.9600 c1        1 59G     -0.298000
      4 C20        -4.6600   -1.7290    1.2780 c2        1 59G      0.164000
      5 C21        -5.8060   -2.3620    0.5680 c2        1 59G     -0.308000
      6 C22        -5.8300   -2.1590   -0.7660 c1        1 59G     -0.344000
      7 C24        -3.8090   -1.0470    0.3600 c2        1 59G     -0.686000
      8 C26        -6.7680   -3.0980    1.3670 c2        1 59G      0.324000
      9 C01         8.4780    2.0710    2.9910 c3        1 59G     -0.209000
     10 C03         8.4370    1.6520    0.5300 c3        1 59G     -0.209000
     11 C04         6.8170    0.5350    2.0130 c2        1 59G      0.070000
     12 O05         7.5050   -0.6730    2.2270 os        1 59G     -0.069000
     13 N06         6.6480   -1.6660    2.4040 n2        1 59G     -0.017000
     14 C07         5.3930   -1.1840    2.3240 c2        1 59G     -0.038000
     15 C08         5.4510    0.2680    2.0670 c2        1 59G     -0.234000
     16 C09         4.4570    1.2980    1.8700 c1        1 59G      0.003000
     17 C11         2.2000    1.9440    1.8090 c3        1 59G      0.082000
     18 C12         1.6610    1.7460    0.4350 c2        1 59G     -0.221000
     19 C14        -0.4410    0.8400    1.2920 c2        1 59G      0.081000
     20 C16         1.1820    1.7840    2.9360 c3        1 59G     -0.129000
     21 C18        -5.5590   -2.5640    3.3730 c1        1 59G     -0.005000
     22 C19        -4.5800   -1.8390    2.6410 c2        1 59G     -0.398000
     23 S23        -4.4380   -1.1360   -1.1770 s4        1 59G      0.942000
     24 C25        -2.6550   -0.3920    0.6870 c1        1 59G      0.070000
     25 O27        -7.7720   -3.7260    1.0240 o         1 59G     -0.326000
     26 O28        -6.5730   -3.1460    2.7630 os        1 59G     -0.167000
     27 C29         4.1740   -1.9730    2.4640 ca        1 59G     -0.010000
     28 C30         3.5370   -2.5150    1.3360 ca        1 59G     -0.026500
     29 CL31        4.2180   -2.3230   -0.2100 cl        1 59G     -0.007500
     30 C32         2.3320   -3.2140    1.4620 ca        1 59G     -0.123000
     31 C33         1.7630   -3.3880    2.7210 ca        1 59G     -0.093000
     32 C34         2.3930   -2.8820    3.8560 ca        1 59G     -0.123000
     33 C35         3.5950   -2.1810    3.7270 ca        1 59G     -0.026500
     34 CL36        4.3460   -1.5720    5.1270 cl        1 59G     -0.007500
     35 H13         2.3460    2.0220   -0.3790 ha        1 59G      0.128000
     36 H15         0.9260    2.8120    3.3170 hc        1 59G      0.099000
     37 H22        -3.6850   -2.0410   -1.7640 hs        1 59G     -0.123000
     38 H01         6.8470    2.6030    1.6610 hc        1 59G      0.139000
     39 H01A        7.8540    2.2040    3.9070 hc        1 59G      0.083000
     40 H01B        9.1990    1.2370    3.1680 hc        1 59G      0.083000
     41 H02         9.0510    3.0110    2.8090 hc        1 59G      0.083000
     42 H03         9.1570    0.8030    0.6160 hc        1 59G      0.083000
     43 H03A        7.7820    1.4770   -0.3570 hc        1 59G      0.083000
     44 H03B        9.0090    2.5970    0.3720 hc        1 59G      0.083000
     45 H09         4.8670    3.7320    1.8020 ha        1 59G     -0.000500
     46 H09A        5.0680    4.3810    1.8160 ha        1 59G     -0.000500
     47 H12         2.7130    2.9440    1.8820 h1        1 59G      0.110000
     48 H16         1.6700    1.2270    3.7840 hc        1 59G      0.099000
     49 H18         0.0590    1.1110   -0.8240 ha        1 59G      0.133000
     50 H19        -3.7650   -1.3680    3.2020 ha        1 59G      0.140000
     51 H25         1.9390   -3.0250    4.8490 ha        1 59G      0.154500
     52 H32         1.8290   -3.6130    0.5680 ha        1 59G      0.154500
     53 H33        -0.7170    0.7980    3.4130 ha        1 59G      0.139000
     54 H34         0.8030   -3.9210    2.8180 ha        1 59G      0.155000
     55 O10         3.2130    0.8990    2.0390 os        1 59G     -0.171000
     56 C02         7.6010    1.7670    1.7910 c3        1 59G     -0.062000
@<TRIPOS>BOND
     1    1   18 1   
     2    1   19 1   
     3    1   49 1   
     4    2   19 1   
     5    2   20 1   
     6    2   53 1   
     7    3   19 1   
     8    3   24 1   
     9    4    5 1   
    10    4    7 1   
    11    4   22 1   
    12    5    6 1   
    13    5    8 1   
    14    6   23 1   
    15    7   23 1   
    16    7   24 1   
    17    8   25 1   
    18    8   26 1   
    19    9   39 1   
    20    9   40 1   
    21    9   41 1   
    22    9   56 1   
    23   10   42 1   
    24   10   43 1   
    25   10   44 1   
    26   10   56 1   
    27   11   12 1   
    28   11   15 1   
    29   11   56 1   
    30   12   13 1   
    31   13   14 1   
    32   14   15 1   
    33   14   27 1   
    34   15   16 1   
    35   16   55 1   
    36   17   18 1   
    37   17   20 1   
    38   17   47 1   
    39   17   55 1   
    40   18   35 1   
    41   20   36 1   
    42   20   48 1   
    43   21   22 1   
    44   21   26 1   
    45   22   50 1   
    46   23   37 1   
    47   27   28 1   
    48   27   33 1   
    49   28   29 1   
    50   28   30 1   
    51   30   31 1   
    52   30   52 1   
    53   31   32 1   
    54   31   54 1   
    55   32   33 1   
    56   32   51 1   
    57   33   34 1   
    58   38   56 1   
    59   45   46 1   
@<TRIPOS>SUBSTRUCTURE
     1 59G         1 TEMP              0 ****  ****    0 ROOT
