@<TRIPOS>MOLECULE
molecule
   56    58     1     0     0
SMALL
bcc


@<TRIPOS>ATOM
      1 N1           0.0000     0.0000     0.0000 ns         1 59H      -0.544900
      2 C3           4.0760     2.8460    -2.4860 c          1 59H       0.903600
      3 N           -2.6710    -2.5380     0.2230 ns         1 59H      -0.578900
      4 CA          -2.1820    -1.1620     0.1020 c3         1 59H       0.111000
      5 C           -0.6750    -1.1620     0.1030 c          1 59H       0.667100
      6 O           -0.0680    -2.2080     0.1940 o          1 59H      -0.634100
      7 CX1         -2.6840    -0.5610    -1.1860 ca         1 59H      -0.107300
      8 CX2         -3.1100     0.7530    -1.2160 ca         1 59H      -0.105500
      9 CX3         -3.5710     1.3040    -2.3970 ca         1 59H      -0.125000
     10 CX4         -3.6060     0.5400    -3.5490 ca         1 59H      -0.120000
     11 CX5         -3.1790    -0.7750    -3.5190 ca         1 59H      -0.125000
     12 CX6         -2.7140    -1.3240    -2.3390 ca         1 59H      -0.105500
     13 OX1         -4.5520    -1.8580     1.1870 o          1 59H      -0.588100
     14 NX1         -4.3840    -4.0300     0.7570 n          1 59H      -0.515400
     15 CX8         -3.6500    -5.2390     0.3510 c3         1 59H       0.055000
     16 CX9         -4.6650    -6.3770     0.5670 c3         1 59H       0.070000
     17 NX2         -5.8630    -5.6910     1.0720 ns         1 59H      -0.615900
     18 CXA         -5.6150    -4.3770     1.1540 c          1 59H       0.818500
     19 OX2         -6.4360    -3.5710     1.5470 o          1 59H      -0.622500
     20 CA1          1.4650     0.0000     0.0000 c3         1 59H       0.009700
     21 C1           1.9660     0.0000     1.4210 c          1 59H       0.569900
     22 O1           1.1810     0.0010     2.3390 o          1 59H      -0.522100
     23 N3           3.4640     1.2850    -0.7430 n7         1 59H      -0.757200
     24 CA3          3.9510     2.6450    -0.9980 c3         1 59H       0.043500
     25 CXC          3.0190     3.7310    -0.4260 c3         1 59H       0.092100
     26 CXD          1.9750     1.2490    -0.7220 c3         1 59H       0.304600
     27 S4           1.6030     2.7720     0.2440 ss         1 59H      -0.540200
     28 CXE          2.5560     4.6800    -1.5330 c3         1 59H      -0.074600
     29 H1          -0.5000     0.8660    -0.0480 hn         1 59H       0.337500
     30 H2          -2.0830    -3.3020    -0.0450 hn         1 59H       0.330500
     31 H3          -2.5430    -0.5760     0.9380 h1         1 59H       0.107700
     32 H4          -3.0830     1.3520    -0.3140 ha         1 59H       0.132000
     33 H5          -3.9050     2.3340    -2.4210 ha         1 59H       0.129000
     34 H6          -3.9690     0.9700    -4.4740 ha         1 59H       0.127000
     35 H7          -3.2050    -1.3740    -4.4220 ha         1 59H       0.129000
     36 H8          -2.3790    -2.3540    -2.3150 ha         1 59H       0.132000
     37 H9          -2.8550    -5.3830     1.0730 h1         1 59H       0.073700
     38 H10         -3.4820    -5.1630    -0.7170 h1         1 59H       0.073700
     39 H11         -4.2870    -6.9880     1.3780 h1         1 59H       0.061700
     40 H12         -4.9150    -6.7680    -0.4120 h1         1 59H       0.061700
     41 H13         -6.7240    -6.1350     1.3220 hn         1 59H       0.360500
     42 H14          1.8260    -0.8850    -0.5100 h1         1 59H       0.113700
     43 H15          3.0300    -0.0450     1.6190 h4         1 59H       0.001200
     44 H16          3.8180     0.9630     0.1350 hn         1 59H       0.327800
     45 H18          4.9280     2.7530    -0.5430 h1         1 59H       0.066700
     46 H20          3.0000     5.1420     1.1960 hc         1 59H       0.045533
     47 H21          4.5050     5.1210     0.2660 hc         1 59H       0.045533
     48 H22          4.1480     3.8110     1.4010 hc         1 59H       0.045533
     49 H23          1.5730     1.3190    -1.7250 h2         1 59H       0.133700
     50 H24          1.8040     5.3540    -1.1400 hc         1 59H       0.045533
     51 H25          2.1340     4.1050    -2.3490 hc         1 59H       0.045533
     52 H26          3.4010     5.2530    -1.8950 hc         1 59H       0.045533
     53 O3           3.4910     2.1090    -3.2460 o          1 59H      -0.832800
     54 CXB          3.7190     4.5080     0.6910 c3         1 59H      -0.074600
     55 OXT          4.8350     3.8430    -2.9670 o          1 59H      -0.832800
     56 CX7         -3.8930    -2.7760     0.7390 c          1 59H       0.805100
@<TRIPOS>BOND
     1    53     2 1
     2    22    21 2
     3     2    55 1
     4     2    24 1
     5    13    56 2
     6    24    23 1
     7    24    25 1
     8    21    20 1
     9    12    11 ar
    10    12     7 ar
    11    15    14 1
    12    15    16 1
    13    11    10 ar
    14    23    26 1
    15    56    14 1
    16    56     3 1
    17     1    20 1
    18     1     5 1
    19    54    25 1
    20     4     7 1
    21     4     3 1
    22     4     5 1
    23     7     8 ar
    24    25    28 1
    25    25    27 1
    26    20    26 1
    27    14    18 1
    28    10     9 ar
    29     5     6 2
    30    16    17 1
    31    26    27 1
    32     8     9 ar
    33    18    17 1
    34    18    19 2
    35     1    29 1
    36     3    30 1
    37     4    31 1
    38     8    32 1
    39     9    33 1
    40    10    34 1
    41    11    35 1
    42    12    36 1
    43    15    37 1
    44    15    38 1
    45    16    39 1
    46    16    40 1
    47    17    41 1
    48    20    42 1
    49    21    43 1
    50    23    44 1
    51    24    45 1
    52    54    46 1
    53    54    47 1
    54    54    48 1
    55    26    49 1
    56    28    50 1
    57    28    51 1
    58    28    52 1
@<TRIPOS>SUBSTRUCTURE
     1 59H         1 TEMP              0 ****  ****    0 ROOT
