@<TRIPOS>MOLECULE
molecule
   63    65     1     0     0
SMALL
bcc


@<TRIPOS>ATOM
      1 C10          0.0000     0.0000     0.0000 ca         1 59J      -0.099300
      2 C12          1.3150     2.4970    -4.0120 c3         1 59J       0.070000
      3 C13          1.2830     3.2950    -5.3130 c3         1 59J       0.088000
      4 C14          1.3830     0.0000     0.0000 ca         1 59J      -0.091000
      5 C15         -0.6930     0.0010     1.1960 ca         1 59J      -0.091000
      6 C16          0.1700     4.3770    -2.9660 c          1 59J       0.635500
      7 C17          0.8470     5.2710    -3.9560 c          1 59J       0.635500
      8 C20          2.0740     0.0000     1.1970 ca         1 59J      -0.131500
      9 C21         -0.0070    -0.0040     2.3940 ca         1 59J      -0.131500
     10 C22          1.3800     0.0010     2.3970 ca         1 59J       0.131100
     11 C23          3.6700     5.5900    -5.5000 c3         1 59J      -0.114100
     12 S01         -1.4270    -6.4400    -1.2260 ss         1 59J      -0.324200
     13 O01         -3.3530    -2.9450    -2.7870 o          1 59J      -0.836800
     14 O03          1.3240    -3.5190     2.1310 o          1 59J      -0.833300
     15 O04          2.0850    -5.5830     2.4150 o          1 59J      -0.833300
     16 O05         -1.2000     2.6590    -1.5150 o          1 59J      -0.596100
     17 O06         -0.5400     4.8440    -2.0990 o          1 59J      -0.508500
     18 O07          0.8720     6.4720    -3.7830 o          1 59J      -0.605500
     19 O            2.0580     0.0020     3.5760 oh         1 59J      -0.508100
     20 N01         -0.4290    -4.5380     0.3770 n2         1 59J      -0.585900
     21 N02         -1.3750    -2.3840    -1.1620 ns         1 59J      -0.492900
     22 N03         -0.0750     0.8930    -2.2550 ns         1 59J      -0.563900
     23 N04          0.3590     3.0450    -3.0510 n          1 59J      -0.499400
     24 N05          1.4280     4.7250    -5.0420 n          1 59J      -0.493800
     25 C01         -1.5240    -4.7490    -0.5610 c3         1 59J       0.238600
     26 C02         -1.4160    -3.7430    -1.7080 c3         1 59J       0.037700
     27 C03         -2.6110    -3.8840    -2.6140 c          1 59J       0.879600
     28 C07          0.2660    -5.3930     0.9560 ce         1 59J       0.397300
     29 C04          0.2400    -6.8800     0.8700 c3         1 59J      -0.148000
     30 C05         -1.0790    -7.3920     0.2870 c3         1 59J      -0.024300
     31 C06         -0.7940    -1.3920    -1.8670 c          1 59J       0.670100
     32 C08          0.4250    -7.4640     2.2720 c3         1 59J      -0.065100
     33 CA          -0.7520     0.0060    -1.3060 c3         1 59J       0.098000
     34 C09          1.2850    -4.8420     1.8810 c          1 59J       0.792300
     35 O08         -2.8530    -5.0510    -3.2300 o          1 59J      -0.836800
     36 H3           2.0950     2.9690    -5.9510 h1         1 59J       0.059200
     37 H4           0.3370     3.1210    -5.8130 h1         1 59J       0.059200
     38 H5           1.9250    -0.0010    -0.9380 ha         1 59J       0.122500
     39 H6          -1.7770    -0.0010     1.1930 ha         1 59J       0.122500
     40 H7           2.1510     5.1730    -6.9620 h1         1 59J       0.056700
     41 H8           1.8070     6.5710    -5.9330 h1         1 59J       0.056700
     42 H9           3.1570     0.0020     1.1970 ha         1 59J       0.125500
     43 H10         -0.5510    -0.0030     3.3310 ha         1 59J       0.125500
     44 H11          4.1310     4.6340    -5.7140 hc         1 59J       0.040367
     45 H12          3.7080     5.7790    -4.4340 hc         1 59J       0.040367
     46 H13          4.2030     6.3740    -6.0240 hc         1 59J       0.040367
     47 H15          2.1480     0.8870     3.8860 ho         1 59J       0.386000
     48 H16         -1.8080    -2.1850    -0.2830 hn         1 59J       0.316500
     49 H17          0.5590     0.5120    -2.9300 hn         1 59J       0.328500
     50 H18         -2.4680    -4.6190    -0.0470 h2         1 59J       0.070700
     51 H19         -0.5110    -3.9330    -2.2710 h1         1 59J       0.089700
     52 H20          1.0550    -7.2090     0.2360 hc         1 59J       0.064700
     53 H21         -1.8780    -7.2430     1.0040 h1         1 59J       0.044700
     54 H22         -0.9890    -8.4440     0.0450 h1         1 59J       0.044700
     55 H23         -0.0810    -8.4200     2.3350 hc         1 59J       0.028367
     56 H24          1.4820    -7.6020     2.4700 hc         1 59J       0.028367
     57 H25          0.0070    -6.7850     3.0050 hc         1 59J       0.028367
     58 H26         -1.7620     0.3600    -1.1390 h1         1 59J       0.097700
     59 O02         -0.3080    -1.6250    -2.9530 o          1 59J      -0.656100
     60 H1           2.3120     2.5460    -3.5900 h1         1 59J       0.073200
     61 C19          2.2090     5.5650    -5.9530 c3         1 59J       0.103000
     62 C11         -0.3360     2.2150    -2.2470 c          1 59J       0.769100
     63 H2           1.0600     1.4650    -4.2200 h1         1 59J       0.073200
@<TRIPOS>BOND
     1    61    24 1
     2    61    11 1
     3    18     7 2
     4    24     7 1
     5    24     3 1
     6     7     6 1
     7     3     2 1
     8     2    23 1
     9    19    10 1
    10     8    10 ar
    11     8     4 ar
    12     6    23 1
    13     6    17 2
    14    23    62 1
    15    10     9 ar
    16     4     1 ar
    17    62    16 2
    18    62    22 1
    19     9     5 ar
    20    22    33 1
    21     1     5 ar
    22     1    33 1
    23    33    31 1
    24    59    31 2
    25    31    21 1
    26    21    26 1
    27    12    30 1
    28    12    25 1
    29    30    29 1
    30    26    25 1
    31    26    27 1
    32    25    20 1
    33    13    27 1
    34    27    35 1
    35    29    28 1
    36    29    32 1
    37    20    28 2
    38    28    34 1
    39    34    15 1
    40    34    14 1
    41     2    60 1
    42     2    63 1
    43     3    36 1
    44     3    37 1
    45     4    38 1
    46     5    39 1
    47    61    40 1
    48    61    41 1
    49     8    42 1
    50     9    43 1
    51    11    44 1
    52    11    45 1
    53    11    46 1
    54    19    47 1
    55    21    48 1
    56    22    49 1
    57    25    50 1
    58    26    51 1
    59    29    52 1
    60    30    53 1
    61    30    54 1
    62    32    55 1
    63    32    56 1
    64    32    57 1
    65    33    58 1
@<TRIPOS>SUBSTRUCTURE
     1 59J         1 TEMP              0 ****  ****    0 ROOT
