@<TRIPOS>MOLECULE
59J
   63    65     1     0     0
SMALL
bcc


@<TRIPOS>ATOM
      1 C10          0.0000     0.0000     0.0000 ca         1 59J      -0.117300
      2 C12          1.3150     2.4970    -4.0120 c3         1 59J       0.009000
      3 C13          1.2830     3.2950    -5.3130 c3         1 59J       0.046000
      4 C14          1.3830     0.0000     0.0000 ca         1 59J      -0.061500
      5 C15         -0.6930     0.0010     1.1960 ca         1 59J      -0.061500
      6 C16          0.1700     4.3770    -2.9660 c          1 59J       0.543500
      7 C17          0.8470     5.2710    -3.9560 c          1 59J       0.558500
      8 C20          2.0740     0.0000     1.1970 ca         1 59J      -0.116000
      9 C21         -0.0070    -0.0040     2.3940 ca         1 59J      -0.116000
     10 C22          1.3800     0.0010     2.3970 ca         1 59J       0.151100
     11 C23          3.6700     5.5900    -5.5000 c3         1 59J      -0.017100
     12 S01         -1.4270    -6.4400    -1.2260 ss         1 59J      -0.385200
     13 O01         -3.3530    -2.9450    -2.7870 o          1 59J      -0.883300
     14 O03          1.3240    -3.5190     2.1310 o          1 59J      -0.885300
     15 O04          2.0850    -5.5830     2.4150 o          1 59J      -0.885300
     16 O05         -1.2000     2.6590    -1.5150 o          1 59J      -0.640100
     17 O06         -0.5400     4.8440    -2.0990 o          1 59J      -0.538500
     18 O07          0.8720     6.4720    -3.7830 o          1 59J      -0.644500
     19 O            2.0580     0.0020     3.5760 oh         1 59J      -0.483100
     20 N01         -0.4290    -4.5380     0.3770 n2         1 59J      -0.487900
     21 N02         -1.3750    -2.3840    -1.1620 ns         1 59J      -0.048900
     22 N03         -0.0750     0.8930    -2.2550 ns         1 59J      -0.169900
     23 N04          0.3590     3.0450    -3.0510 n          1 59J      -0.145400
     24 N05          1.4280     4.7250    -5.0420 n          1 59J      -0.167800
     25 C01         -1.5240    -4.7490    -0.5610 c3         1 59J       0.265600
     26 C02         -1.4160    -3.7430    -1.7080 c3         1 59J      -0.086300
     27 C03         -2.6110    -3.8840    -2.6140 c          1 59J       0.969600
     28 C07          0.2660    -5.3930     0.9560 ce         1 59J       0.334300
     29 C04          0.2400    -6.8800     0.8700 c3         1 59J      -0.094000
     30 C05         -1.0790    -7.3920     0.2870 c3         1 59J       0.029700
     31 C06         -0.7940    -1.3920    -1.8670 c          1 59J       0.564100
     32 C08          0.4250    -7.4640     2.2720 c3         1 59J      -0.003100
     33 CA          -0.7520     0.0060    -1.3060 c3         1 59J       0.009000
     34 C09          1.2850    -4.8420     1.8810 c          1 59J       0.876300
     35 O08         -2.8530    -5.0510    -3.2300 o          1 59J      -0.883300
     36 H3           2.0950     2.9690    -5.9510 h1         1 59J       0.027200
     37 H4           0.3370     3.1210    -5.8130 h1         1 59J       0.027200
     38 H5           1.9250    -0.0010    -0.9380 ha         1 59J       0.095500
     39 H6          -1.7770    -0.0010     1.1930 ha         1 59J       0.095500
     40 H7           2.1510     5.1730    -6.9620 h1         1 59J       0.027700
     41 H8           1.8070     6.5710    -5.9330 h1         1 59J       0.027700
     42 H9           3.1570     0.0020     1.1970 ha         1 59J       0.099500
     43 H10         -0.5510    -0.0030     3.3310 ha         1 59J       0.099500
     44 H11          4.1310     4.6340    -5.7140 hc         1 59J       0.007367
     45 H12          3.7080     5.7790    -4.4340 hc         1 59J       0.007367
     46 H13          4.2030     6.3740    -6.0240 hc         1 59J       0.007367
     47 H15          2.1480     0.8870     3.8860 ho         1 59J       0.368000
     48 H16         -1.8080    -2.1850    -0.2830 hn         1 59J       0.166500
     49 H17          0.5590     0.5120    -2.9300 hn         1 59J       0.195500
     50 H18         -2.4680    -4.6190    -0.0470 h2         1 59J       0.046700
     51 H19         -0.5110    -3.9330    -2.2710 h1         1 59J       0.072700
     52 H20          1.0550    -7.2090     0.2360 hc         1 59J       0.042700
     53 H21         -1.8780    -7.2430     1.0040 h1         1 59J       0.029200
     54 H22         -0.9890    -8.4440     0.0450 h1         1 59J       0.029200
     55 H23         -0.0810    -8.4200     2.3350 hc         1 59J       0.006700
     56 H24          1.4820    -7.6020     2.4700 hc         1 59J       0.006700
     57 H25          0.0070    -6.7850     3.0050 hc         1 59J       0.006700
     58 H26         -1.7620     0.3600    -1.1390 h1         1 59J       0.069700
     59 O02         -0.3080    -1.6250    -2.9530 o          1 59J      -0.708100
     60 H1           2.3120     2.5460    -3.5900 h1         1 59J       0.044200
     61 C19          2.2090     5.5650    -5.9530 c3         1 59J       0.053000
     62 C11         -0.3360     2.2150    -2.2470 c          1 59J       0.563100
     63 H2           1.0600     1.4650    -4.2200 h1         1 59J       0.044200
@<TRIPOS>BOND
     1     1     4 ar  
     2     1     5 ar  
     3     1    33 1   
     4     2     3 1   
     5     2    23 1   
     6     2    60 1   
     7     2    63 1   
     8     3    24 1   
     9     3    36 1   
    10     3    37 1   
    11     4     8 ar  
    12     4    38 1   
    13     5     9 ar  
    14     5    39 1   
    15     6     7 1   
    16     6    17 2   
    17     6    23 1   
    18     7    18 2   
    19     7    24 1   
    20     8    10 ar  
    21     8    42 1   
    22     9    10 ar  
    23     9    43 1   
    24    10    19 1   
    25    11    44 1   
    26    11    45 1   
    27    11    46 1   
    28    11    61 1   
    29    12    25 1   
    30    12    30 1   
    31    13    27 1   
    32    14    34 1   
    33    15    34 1   
    34    16    62 2   
    35    19    47 1   
    36    20    25 1   
    37    20    28 2   
    38    21    26 1   
    39    21    31 1   
    40    21    48 1   
    41    22    33 1   
    42    22    49 1   
    43    22    62 1   
    44    23    62 1   
    45    24    61 1   
    46    25    26 1   
    47    25    50 1   
    48    26    27 1   
    49    26    51 1   
    50    27    35 1   
    51    28    29 1   
    52    28    34 1   
    53    29    30 1   
    54    29    32 1   
    55    29    52 1   
    56    30    53 1   
    57    30    54 1   
    58    31    33 1   
    59    31    59 2   
    60    32    55 1   
    61    32    56 1   
    62    32    57 1   
    63    33    58 1   
    64    40    61 1   
    65    41    61 1   
@<TRIPOS>SUBSTRUCTURE
     1 59J         1 TEMP              0 ****  ****    0 ROOT
