@<TRIPOS>MOLECULE
molecule
   41    44     1     0     0
SMALL
bcc


@<TRIPOS>ATOM
      1 C4           0.0000     0.0000     0.0000 ca         1 59K       0.531600
      2 C5           1.3970     0.0000     0.0000 ca         1 59K      -0.347400
      3 C6           2.0530     0.0000     1.2580 ca         1 59K       0.694200
      4 N1           1.3200    -0.0020     2.3630 nb         1 59K      -0.808000
      5 N3          -0.6520    -0.0010     1.1700 nb         1 59K      -0.729000
      6 FAB          0.2620    -2.1010    -4.0700 f          1 59K      -0.222967
      7 CAZ          1.4780    -1.4400    -4.2760 c3         1 59K       0.615900
      8 FAC          2.4930    -2.0990    -3.5740 f          1 59K      -0.222967
      9 FAD          1.7820    -1.4390    -5.6420 f          1 59K      -0.222967
     10 CAS          1.0390     0.0020    -2.3070 cc         1 59K      -0.084600
     11 SAQ         -0.5890    -0.0060    -1.6560 ss         1 59K      -0.095900
     12 CAF          1.9410     0.0020    -1.3440 cd         1 59K      -0.080200
     13 C2           0.0010    -0.0020     2.3080 ca         1 59K       0.718900
     14 NAY          3.4340     0.0000     1.3310 nh         1 59K      -0.690300
     15 CAJ          3.8880    -0.0020     2.7290 c3         1 59K       0.166300
     16 CAH          3.4540    -1.3050     3.4030 c3         1 59K       0.125800
     17 CAI          4.0000    -1.1410     0.5960 c3         1 59K       0.166300
     18 CAG          3.5660    -2.4450     1.2700 c3         1 59K       0.125800
     19 NAX          4.0200    -2.4450     2.6670 nh         1 59K      -0.670300
     20 CAT          3.7060    -3.6440     3.2920 cc         1 59K       0.614300
     21 SAP          4.0590    -4.0690     4.9680 ss         1 59K      -0.332800
     22 NAO          3.0940    -4.6560     2.7480 nd         1 59K      -0.383000
     23 NAN          2.8890    -5.6710     3.4670 nd         1 59K      -0.311000
     24 CAR          3.3000    -5.6380     4.6940 cc         1 59K       0.411700
     25 CAA          3.1520    -6.7430     5.7080 c3         1 59K      -0.106400
     26 H1           2.3070     0.5140    -3.9380 hc         1 59K       0.090700
     27 H2           0.5800     0.5130    -4.3220 hc         1 59K       0.090700
     28 H3           3.0060     0.0040    -1.5430 ha         1 59K       0.162000
     29 H4          -0.5610    -0.0030     3.2340 h5         1 59K       0.065100
     30 H5           3.4470     0.8380     3.2510 h1         1 59K       0.078700
     31 H6           4.9680     0.0760     2.7560 h1         1 59K       0.078700
     32 H7           2.3730    -1.3720     3.3950 h1         1 59K       0.071700
     33 H8           3.8150    -1.3200     4.4240 h1         1 59K       0.071700
     34 H9           3.6400    -1.1260    -0.4250 h1         1 59K       0.078700
     35 H10          5.0810    -1.0740     0.6050 h1         1 59K       0.078700
     36 H11          4.0070    -3.2850     0.7480 h1         1 59K       0.071700
     37 H12          2.4860    -2.5230     1.2420 h1         1 59K       0.071700
     38 H13          3.5940    -7.6520     5.3190 hc         1 59K       0.060700
     39 H14          2.1000    -6.9100     5.9090 hc         1 59K       0.060700
     40 H15          3.6540    -6.4600     6.6260 hc         1 59K       0.060700
     41 CAK          1.3660     0.0020    -3.7780 c3         1 59K      -0.053200
@<TRIPOS>BOND
     1    25    24 1   
     2    21    24 1   
     3    21    20 1   
     4    41    10 1   
     5    41     7 1   
     6    11    10 1   
     7    11     1 1   
     8    24    23 2   
     9    10    12 2   
    10    18    17 1   
    11    18    19 1   
    12     9     7 1   
    13     1     5 ar  
    14     1     2 ar  
    15    12     2 1   
    16     5    13 ar  
    17     7     6 1   
    18     7     8 1   
    19     2     3 ar  
    20    17    14 1   
    21    20    19 1   
    22    20    22 2   
    23    13     4 ar  
    24    23    22 1   
    25     3     4 ar  
    26     3    14 1   
    27    19    16 1   
    28    14    15 1   
    29    15    16 1   
    30    41    26 1   
    31    41    27 1   
    32    12    28 1   
    33    13    29 1   
    34    15    30 1   
    35    15    31 1   
    36    16    32 1   
    37    16    33 1   
    38    17    34 1   
    39    17    35 1   
    40    18    36 1   
    41    18    37 1   
    42    25    38 1   
    43    25    39 1   
    44    25    40 1   
@<TRIPOS>SUBSTRUCTURE
     1 59K         1 TEMP              0 ****  ****    0 ROOT
