@<TRIPOS>MOLECULE
59K
   41    44     1     0     0
SMALL
bcc


@<TRIPOS>ATOM
      1 C4           0.0000     0.0000     0.0000 ca         1 59K       0.546600
      2 C5           1.3970     0.0000     0.0000 ca         1 59K      -0.344400
      3 C6           2.0530     0.0000     1.2580 ca         1 59K       0.575200
      4 N1           1.3200    -0.0020     2.3630 nb         1 59K      -0.694000
      5 N3          -0.6520    -0.0010     1.1700 nb         1 59K      -0.603000
      6 FAB          0.2620    -2.1010    -4.0700 f          1 59K      -0.205300
      7 CAZ          1.4780    -1.4400    -4.2760 c3         1 59K       0.571900
      8 FAC          2.4930    -2.0990    -3.5740 f          1 59K      -0.205300
      9 FAD          1.7820    -1.4390    -5.6420 f          1 59K      -0.205300
     10 CAS          1.0390     0.0020    -2.3070 cc         1 59K      -0.031600
     11 SAQ         -0.5890    -0.0060    -1.6560 ss         1 59K      -0.245900
     12 CAF          1.9410     0.0020    -1.3440 cd         1 59K      -0.050200
     13 C2           0.0010    -0.0020     2.3080 ca         1 59K       0.667900
     14 NAY          3.4340     0.0000     1.3310 nh         1 59K      -0.455300
     15 CAJ          3.8880    -0.0020     2.7290 c3         1 59K       0.136300
     16 CAH          3.4540    -1.3050     3.4030 c3         1 59K       0.089300
     17 CAI          4.0000    -1.1410     0.5960 c3         1 59K       0.136300
     18 CAG          3.5660    -2.4450     1.2700 c3         1 59K       0.089300
     19 NAX          4.0200    -2.4450     2.6670 nh         1 59K      -0.416300
     20 CAT          3.7060    -3.6440     3.2920 cc         1 59K       0.534300
     21 SAP          4.0590    -4.0690     4.9680 ss         1 59K      -0.403800
     22 NAO          3.0940    -4.6560     2.7480 nd         1 59K      -0.348000
     23 NAN          2.8890    -5.6710     3.4670 nd         1 59K      -0.261000
     24 CAR          3.3000    -5.6380     4.6940 cc         1 59K       0.408700
     25 CAA          3.1520    -6.7430     5.7080 c3         1 59K       0.011600
     26 H1           2.3070     0.5140    -3.9380 hc         1 59K       0.059200
     27 H2           0.5800     0.5130    -4.3220 hc         1 59K       0.059200
     28 H3           3.0060     0.0040    -1.5430 ha         1 59K       0.139000
     29 H4          -0.5610    -0.0030     3.2340 h5         1 59K       0.004100
     30 H5           3.4470     0.8380     3.2510 h1         1 59K       0.045700
     31 H6           4.9680     0.0760     2.7560 h1         1 59K       0.045700
     32 H7           2.3730    -1.3720     3.3950 h1         1 59K       0.047700
     33 H8           3.8150    -1.3200     4.4240 h1         1 59K       0.047700
     34 H9           3.6400    -1.1260    -0.4250 h1         1 59K       0.045700
     35 H10          5.0810    -1.0740     0.6050 h1         1 59K       0.045700
     36 H11          4.0070    -3.2850     0.7480 h1         1 59K       0.047700
     37 H12          2.4860    -2.5230     1.2420 h1         1 59K       0.047700
     38 H13          3.5940    -7.6520     5.3190 hc         1 59K       0.019700
     39 H14          2.1000    -6.9100     5.9090 hc         1 59K       0.019700
     40 H15          3.6540    -6.4600     6.6260 hc         1 59K       0.019700
     41 CAK          1.3660     0.0020    -3.7780 c3         1 59K       0.010800
@<TRIPOS>BOND
     1     1     2 ar  
     2     1     5 ar  
     3     1    11 1   
     4     2     3 ar  
     5     2    12 1   
     6     3     4 ar  
     7     3    14 1   
     8     4    13 ar  
     9     5    13 ar  
    10     6     7 1   
    11     7     8 1   
    12     7     9 1   
    13     7    41 1   
    14    10    11 1   
    15    10    12 2   
    16    10    41 1   
    17    12    28 1   
    18    13    29 1   
    19    14    15 1   
    20    14    17 1   
    21    15    16 1   
    22    15    30 1   
    23    15    31 1   
    24    16    19 1   
    25    16    32 1   
    26    16    33 1   
    27    17    18 1   
    28    17    34 1   
    29    17    35 1   
    30    18    19 1   
    31    18    36 1   
    32    18    37 1   
    33    19    20 1   
    34    20    21 1   
    35    20    22 2   
    36    21    24 1   
    37    22    23 1   
    38    23    24 2   
    39    24    25 1   
    40    25    38 1   
    41    25    39 1   
    42    25    40 1   
    43    26    41 1   
    44    27    41 1   
@<TRIPOS>SUBSTRUCTURE
     1 59K         1 TEMP              0 ****  ****    0 ROOT
