@<TRIPOS>MOLECULE
molecule
   33    34     1     0     0
SMALL
bcc


@<TRIPOS>ATOM
      1 C01          0.0000     0.0000     0.0000 ca         1 59L      -0.074000
      2 C02          1.3780     0.0000     0.0000 ca         1 59L      -0.214000
      3 C03          2.0780     0.0000     1.1960 ca         1 59L      -0.118000
      4 C04          1.4050     0.0000     2.4000 ca         1 59L      -0.172300
      5 C05          0.0160    -0.0010     2.4210 ca         1 59L       0.262600
      6 C06         -0.6970    -0.0000     1.2110 ca         1 59L      -0.113600
      7 C07         -2.1700    -0.0010     1.2190 c          1 59L       0.910200
      8 N08         -0.6650    -0.0020     3.6320 nu         1 59L      -0.658000
      9 C09         -0.0890     0.5840     4.7530 ca         1 59L       0.198600
     10 C10          0.1660     1.9650     4.7760 ca         1 59L      -0.067600
     11 C11          0.2330    -0.1920     5.8600 ca         1 59L      -0.143000
     12 C12          0.8050     0.3920     6.9710 ca         1 59L      -0.178200
     13 C13          1.0630     1.7530     6.9950 ca         1 59L      -0.138000
     14 C14          0.7460     2.5400     5.9110 ca         1 59L      -0.106000
     15 C15         -0.1750     2.8010     3.6130 c          1 59L       0.861200
     16 O16          0.1820     4.1000     3.5890 o          1 59L      -0.799300
     17 O17         -0.7780     2.3190     2.6740 o          1 59L      -0.799300
     18 O18         -2.7720     0.1050     2.2690 o          1 59L      -0.855300
     19 N19          1.1460    -0.4420     8.1460 no         1 59L       0.303200
     20 C20          2.1770    -0.0000     3.6940 c3         1 59L      -0.044800
     21 O21          1.5640     0.0820     9.1630 o          1 59L      -0.259500
     22 O22          1.0070    -1.6510     8.0950 o          1 59L      -0.259500
     23 O23         -2.8500    -0.1180     0.0610 o          1 59L      -0.855300
     24 H1          -0.5420     0.0000    -0.9380 ha         1 59L       0.138000
     25 H2           1.9170     0.0000    -0.9400 ha         1 59L       0.085000
     26 H3           3.1610     0.0000     1.1850 ha         1 59L       0.087000
     27 H4          -1.5470    -0.4670     3.7090 hn         1 59L       0.485800
     28 H5           0.0360    -1.2570     5.8500 ha         1 59L       0.146000
     29 H6           1.5120     2.2020     7.8730 ha         1 59L       0.128000
     30 H7           0.9470     3.6040     5.9360 ha         1 59L       0.163000
     31 H9           2.1180     0.9810     4.1500 hc         1 59L       0.029033
     32 H10          1.7550    -0.7370     4.3660 hc         1 59L       0.029033
     33 H11          3.2140    -0.2450     3.4950 hc         1 59L       0.029033
@<TRIPOS>BOND
     1    18     7 1
     2    23     7 1
     3     7     6 1
     4    17    15 1
     5     1     6 ar
     6     1     2 ar
     7     6     5 ar
     8    15    16 1
     9    15    10 1
    10     2     3 ar
    11     8     5 1
    12     8     9 1
    13     5     4 ar
    14    10     9 ar
    15    10    14 ar
    16     9    11 ar
    17     3     4 ar
    18     4    20 1
    19    14    13 ar
    20    11    12 ar
    21    13    12 ar
    22    12    19 1
    23    19    22 1
    24    19    21 1
    25     1    24 1
    26     2    25 1
    27     3    26 1
    28     8    27 1
    29    11    28 1
    30    13    29 1
    31    14    30 1
    32    20    31 1
    33    20    32 1
    34    20    33 1
@<TRIPOS>SUBSTRUCTURE
     1 59L         1 TEMP              0 ****  ****    0 ROOT
