@<TRIPOS>MOLECULE
59L
   33    34     1     0     0
SMALL
bcc


@<TRIPOS>ATOM
      1 C01          0.0000     0.0000     0.0000 ca         1 59L      -0.046000
      2 C02          1.3780     0.0000     0.0000 ca         1 59L      -0.200000
      3 C03          2.0780     0.0000     1.1960 ca         1 59L      -0.098000
      4 C04          1.4050     0.0000     2.4000 ca         1 59L      -0.181300
      5 C05          0.0160    -0.0010     2.4210 ca         1 59L       0.121600
      6 C06         -0.6970    -0.0000     1.2110 ca         1 59L      -0.114600
      7 C07         -2.1700    -0.0010     1.2190 c          1 59L       1.007200
      8 N08         -0.6650    -0.0020     3.6320 nu         1 59L      -0.227000
      9 C09         -0.0890     0.5840     4.7530 ca         1 59L       0.049600
     10 C10          0.1660     1.9650     4.7760 ca         1 59L      -0.051600
     11 C11          0.2330    -0.1920     5.8600 ca         1 59L      -0.097000
     12 C12          0.8050     0.3920     6.9710 ca         1 59L      -0.479200
     13 C13          1.0630     1.7530     6.9950 ca         1 59L      -0.097000
     14 C14          0.7460     2.5400     5.9110 ca         1 59L      -0.085000
     15 C15         -0.1750     2.8010     3.6130 c          1 59L       0.942200
     16 O16          0.1820     4.1000     3.5890 o          1 59L      -0.848800
     17 O17         -0.7780     2.3190     2.6740 o          1 59L      -0.848800
     18 O18         -2.7720     0.1050     2.2690 o          1 59L      -0.902800
     19 N19          1.1460    -0.4420     8.1460 no         1 59L       1.065200
     20 C20          2.1770    -0.0000     3.6940 c3         1 59L       0.027200
     21 O21          1.5640     0.0820     9.1630 o          1 59L      -0.497000
     22 O22          1.0070    -1.6510     8.0950 o          1 59L      -0.497000
     23 O23         -2.8500    -0.1180     0.0610 o          1 59L      -0.902800
     24 H1          -0.5420     0.0000    -0.9380 ha         1 59L       0.113000
     25 H2           1.9170     0.0000    -0.9400 ha         1 59L       0.069000
     26 H3           3.1610     0.0000     1.1850 ha         1 59L       0.069000
     27 H4          -1.5470    -0.4670     3.7090 hn         1 59L       0.336800
     28 H5           0.0360    -1.2570     5.8500 ha         1 59L       0.121000
     29 H6           1.5120     2.2020     7.8730 ha         1 59L       0.104000
     30 H7           0.9470     3.6040     5.9360 ha         1 59L       0.132000
     31 H9           2.1180     0.9810     4.1500 hc         1 59L       0.005700
     32 H10          1.7550    -0.7370     4.3660 hc         1 59L       0.005700
     33 H11          3.2140    -0.2450     3.4950 hc         1 59L       0.005700
@<TRIPOS>BOND
     1     1     2 ar  
     2     1     6 ar  
     3     1    24 1   
     4     2     3 ar  
     5     2    25 1   
     6     3     4 ar  
     7     3    26 1   
     8     4     5 ar  
     9     4    20 1   
    10     5     6 ar  
    11     5     8 1   
    12     6     7 1   
    13     7    18 1   
    14     7    23 1   
    15     8     9 1   
    16     8    27 1   
    17     9    10 ar  
    18     9    11 ar  
    19    10    14 ar  
    20    10    15 1   
    21    11    12 ar  
    22    11    28 1   
    23    12    13 ar  
    24    12    19 1   
    25    13    14 ar  
    26    13    29 1   
    27    14    30 1   
    28    15    16 1   
    29    15    17 1   
    30    19    21 1   
    31    19    22 1   
    32    20    31 1   
    33    20    32 1   
    34    20    33 1   
@<TRIPOS>SUBSTRUCTURE
     1 59L         1 TEMP              0 ****  ****    0 ROOT
