@<TRIPOS>MOLECULE
molecule
   41    44     1     0     0
SMALL
bcc


@<TRIPOS>ATOM
      1 C4           0.0000     0.0000     0.0000 ca         1 59M       0.530600
      2 C5           1.3970     0.0000     0.0000 ca         1 59M      -0.351400
      3 C6           2.0540     0.0000     1.2570 ca         1 59M       0.689200
      4 N1           1.3230     0.0010     2.3620 nb         1 59M      -0.799000
      5 N3          -0.6510    -0.0000     1.1700 nb         1 59M      -0.729000
      6 FAB          0.2570    -2.1220    -4.0580 f          1 59M      -0.223633
      7 CBA          1.4730    -1.4640    -4.2690 c3         1 59M       0.616900
      8 FAC          2.4870    -2.1200    -3.5640 f          1 59M      -0.223633
      9 FAD          1.7750    -1.4710    -5.6350 f          1 59M      -0.223633
     10 CAS          1.0370    -0.0110    -2.3070 cc         1 59M      -0.085600
     11 SAR         -0.5900    -0.0080    -1.6550 ss         1 59M      -0.094900
     12 CAF          1.9400    -0.0010    -1.3460 cd         1 59M      -0.082200
     13 C2           0.0030     0.0000     2.3090 ca         1 59M       0.721900
     14 NAZ          3.4360    -0.0000     1.3280 nh         1 59M      -0.689300
     15 CAK          3.8900     0.0010     2.7250 c3         1 59M       0.166300
     16 CAI          3.4570    -1.3030     3.4010 c3         1 59M       0.125300
     17 CAJ          4.0010    -1.1410     0.5940 c3         1 59M       0.166300
     18 CAH          3.5680    -2.4440     1.2680 c3         1 59M       0.125300
     19 NAY          4.0230    -2.4430     2.6660 nh         1 59M      -0.670300
     20 CAU          3.7100    -3.6420     3.2910 cc         1 59M       0.624300
     21 SAQ          4.1850    -5.2530     2.7510 ss         1 59M      -0.309800
     22 NAP          3.0180    -3.7800     4.3850 nd         1 59M      -0.383000
     23 NAO          2.8290    -4.9510     4.8140 nd         1 59M      -0.284000
     24 CAT          3.3360    -5.9320     4.1410 cc         1 59M       0.354700
     25 CAG          3.2270    -7.3940     4.4860 c3         1 59M       0.157600
     26 FAA          2.0880    -7.9330     3.8770 f          1 59M      -0.231300
     27 H1           2.3040     0.4920    -3.9430 hc         1 59M       0.091200
     28 H2           0.5760     0.4890    -4.3250 hc         1 59M       0.091200
     29 H3           3.0050     0.0070    -1.5460 ha         1 59M       0.161000
     30 H4          -0.5580     0.0010     3.2360 h5         1 59M       0.069100
     31 H5           3.4480     0.8410     3.2470 h1         1 59M       0.079450
     32 H6           4.9700     0.0790     2.7530 h1         1 59M       0.079450
     33 H7           2.3760    -1.3700     3.3940 h1         1 59M       0.072450
     34 H8           3.8190    -1.3170     4.4220 h1         1 59M       0.072450
     35 H9           3.6390    -1.1260    -0.4270 h1         1 59M       0.079450
     36 H10          5.0820    -1.0740     0.6010 h1         1 59M       0.079450
     37 H11          4.0090    -3.2840     0.7460 h1         1 59M       0.072450
     38 H12          2.4870    -2.5220     1.2420 h1         1 59M       0.072450
     39 H17          3.1490    -7.5070     5.5610 h1         1 59M       0.067700
     40 H18          4.1070    -7.9160     4.1310 h1         1 59M       0.067700
     41 CAL          1.3620    -0.0190    -3.7790 c3         1 59M      -0.054200
@<TRIPOS>BOND
     1     1     2 ar  
     2     1     5 ar  
     3     1    11 1   
     4     2     3 ar  
     5     2    12 1   
     6     3     4 ar  
     7     3    14 1   
     8     4    13 ar  
     9     5    13 ar  
    10     6     7 1   
    11     7     8 1   
    12     7     9 1   
    13     7    41 1   
    14    41    10 1   
    15    10    11 1   
    16    10    12 2   
    17    14    15 1   
    18    14    17 1   
    19    15    16 1   
    20    16    19 1   
    21    17    18 1   
    22    18    19 1   
    23    19    20 1   
    24    20    21 1   
    25    20    22 2   
    26    21    24 1   
    27    22    23 1   
    28    23    24 2   
    29    24    25 1   
    30    25    26 1   
    31    41    27 1   
    32    41    28 1   
    33    12    29 1   
    34    13    30 1   
    35    15    31 1   
    36    15    32 1   
    37    16    33 1   
    38    16    34 1   
    39    17    35 1   
    40    17    36 1   
    41    18    37 1   
    42    18    38 1   
    43    25    39 1   
    44    25    40 1   
@<TRIPOS>SUBSTRUCTURE
     1 59M         1 TEMP              0 ****  ****    0 ROOT
