@<TRIPOS>MOLECULE
59N
   67    71     1     0     0
SMALL
bcc


@<TRIPOS>ATOM
      1 N3           0.0000     0.0000     0.0000 nu         1 59N      -0.466900
      2 C4           1.3800     0.0000     0.0000 ca         1 59N       0.757900
      3 C6           3.3460    -0.0010     1.2010 ca         1 59N       0.451200
      4 C8           5.3600    -0.0010     2.4350 c          1 59N       0.619700
      5 C10          6.1330    -0.0020     1.1910 cc         1 59N      -0.158400
      6 C13          3.3400    -0.0060    -1.2190 ca         1 59N       0.563200
      7 C15          7.6130    -0.0030     1.2310 ca         1 59N      -0.018800
      8 C17          9.6800    -1.1710     1.6060 ca         1 59N      -0.093000
      9 C20          8.3210     1.1640     0.9370 ca         1 59N      -0.081000
     10 C21         11.8680    -0.0070     1.3390 cp         1 59N       0.317500
     11 C24         14.5440    -0.0620     1.4200 ca         1 59N       0.288900
     12 C26         12.5610    -1.1950     1.5730 ca         1 59N       0.282900
     13 C1          -2.2360    -0.0000    -0.9900 c3         1 59N      -0.005100
     14 C2          -0.7320     0.0000    -1.2690 c3         1 59N       0.158800
     15 N5           2.0170     0.0000     1.1600 nb         1 59N      -0.780000
     16 N7           4.0140    -0.0010     2.3990 n          1 59N      -0.005300
     17 O9           5.9380    -0.0010     3.5080 o          1 59N      -0.660500
     18 C11          5.4750     0.0040    -0.0100 cd         1 59N       0.033800
     19 C12          4.0610    -0.0020    -0.0160 ca         1 59N      -0.433400
     20 N14          2.0210    -0.0050    -1.1650 nb         1 59N      -0.709000
     21 C16          8.3020    -1.1710     1.5690 ca         1 59N      -0.004600
     22 C18         10.3850    -0.0050     1.3060 cp         1 59N      -0.128500
     23 C19          9.6970     1.1630     0.9740 ca         1 59N      -0.061000
     24 N22         12.5400     1.1250     1.1520 nb         1 59N      -0.539000
     25 C23         13.8600     1.1200     1.1880 ca         1 59N       0.266300
     26 N25         13.8800    -1.1900     1.6070 nb         1 59N      -0.538000
     27 C27         14.6240     2.4010     0.9770 c3         1 59N      -0.036400
     28 Cl1          7.4240    -2.6200     1.9420 cl         1 59N      -0.047400
     29 C29          3.2550     0.0000     3.6530 c3         1 59N       0.025000
     30 C30          2.9910    -1.4420     4.0890 c3         1 59N      -0.072700
     31 C32          2.3080    -1.4430     5.4590 c3         1 59N      -0.017400
     32 C33          2.0440    -2.8860     5.8960 c3         1 59N      -0.026900
     33 C34          1.1350    -3.5700     4.8720 c3         1 59N      -0.086500
     34 C36          1.8170    -3.5690     3.5020 c3         1 59N      -0.026900
     35 C37          2.0820    -2.1260     3.0660 c3         1 59N      -0.017400
     36 N38          0.8800    -4.9540     5.2920 nz         1 59N       0.076400
     37 H1          -0.5000     0.0340     0.8660 hn         1 59N       0.295800
     38 H2           3.8540    -0.0110    -2.1720 h4         1 59N      -0.005900
     39 H3          10.2150    -2.0760     1.8680 ha         1 59N       0.124000
     40 H4           7.7870     2.0710     0.6790 ha         1 59N       0.112000
     41 H5          15.6270    -0.0610     1.4490 h4         1 59N      -0.003900
     42 H6          12.0180    -2.1190     1.7260 h4         1 59N      -0.004900
     43 H7          -2.4960    -0.8780    -0.4110 hc         1 59N       0.011700
     44 H8          -2.7780    -0.0140    -1.9290 hc         1 59N       0.011700
     45 H9          -2.5010     0.8910    -0.4340 hc         1 59N       0.011700
     46 H10         -0.4710     0.8850    -1.8370 h1         1 59N       0.031700
     47 H11         -0.4700    -0.8840    -1.8380 h1         1 59N       0.031700
     48 H12          6.0290     0.0030    -0.9410 ha         1 59N       0.123000
     49 H13         10.2460     2.0680     0.7440 ha         1 59N       0.132000
     50 H14         15.1660     2.3490     0.0400 hc         1 59N       0.018700
     51 H15         13.9320     3.2340     0.9470 hc         1 59N       0.018700
     52 H16         15.3240     2.5430     1.7910 hc         1 59N       0.018700
     53 H17          3.8240     0.5110     4.4190 h1         1 59N       0.059200
     54 H18          2.3110     0.5110     3.5030 h1         1 59N       0.059200
     55 H19          3.9280    -1.9820     4.1550 hc         1 59N       0.052700
     56 H20          1.3680    -0.9090     5.3930 hc         1 59N       0.044950
     57 H21          2.9540    -0.9610     6.1830 hc         1 59N       0.044950
     58 H22          2.9830    -3.4210     5.9580 hc         1 59N       0.032450
     59 H23          1.5580    -2.8850     6.8640 hc         1 59N       0.032450
     60 H24          0.1980    -3.0300     4.8060 hx         1 59N       0.093700
     61 H25          1.1710    -4.0510     2.7790 hc         1 59N       0.032450
     62 H26          2.7570    -4.1030     3.5680 hc         1 59N       0.032450
     63 H27          1.1420    -1.5910     3.0040 hc         1 59N       0.044950
     64 H28          2.5670    -2.1270     2.0970 hc         1 59N       0.044950
     65 H29          0.4340    -4.9540     6.1870 hn         1 59N       0.223467
     66 H31          0.2860    -5.4020     4.6220 hn         1 59N       0.223467
     67 H383         1.7480    -5.4500     5.3520 hn         1 59N       0.223467
@<TRIPOS>BOND
     1     1     2 1   
     2     1    14 1   
     3     1    37 1   
     4     2    15 ar  
     5     2    20 ar  
     6     3    15 ar  
     7     3    16 1   
     8     3    19 ar  
     9     4     5 1   
    10     4    16 1   
    11     4    17 2   
    12     5     7 1   
    13     5    18 2   
    14     6    19 ar  
    15     6    20 ar  
    16     6    38 1   
    17     7     9 ar  
    18     7    21 ar  
    19     8    21 ar  
    20     8    22 ar  
    21     8    39 1   
    22     9    23 ar  
    23     9    40 1   
    24    10    12 ar  
    25    10    22 1   
    26    10    24 ar  
    27    11    25 ar  
    28    11    26 ar  
    29    11    41 1   
    30    12    26 ar  
    31    12    42 1   
    32    13    14 1   
    33    13    43 1   
    34    13    44 1   
    35    13    45 1   
    36    14    46 1   
    37    14    47 1   
    38    16    29 1   
    39    18    19 1   
    40    18    48 1   
    41    21    28 1   
    42    22    23 ar  
    43    23    49 1   
    44    24    25 ar  
    45    25    27 1   
    46    27    50 1   
    47    27    51 1   
    48    27    52 1   
    49    29    30 1   
    50    29    53 1   
    51    29    54 1   
    52    30    31 1   
    53    30    35 1   
    54    30    55 1   
    55    31    32 1   
    56    31    56 1   
    57    31    57 1   
    58    32    33 1   
    59    32    58 1   
    60    32    59 1   
    61    33    34 1   
    62    33    36 1   
    63    33    60 1   
    64    34    35 1   
    65    34    61 1   
    66    34    62 1   
    67    35    63 1   
    68    35    64 1   
    69    36    65 1   
    70    36    66 1   
    71    36    67 1   
@<TRIPOS>SUBSTRUCTURE
     1 59N         1 TEMP              0 ****  ****    0 ROOT
