@<TRIPOS>MOLECULE
59Q
   41    44     1     0     0
SMALL
bcc


@<TRIPOS>ATOM
      1 C4           0.0000     0.0000     0.0000 ca         1 59Q       0.544600
      2 C5           1.3970     0.0000     0.0000 ca         1 59Q      -0.344400
      3 C6           2.0530     0.0000     1.2580 ca         1 59Q       0.572200
      4 N1           1.3210    -0.0000     2.3630 nb         1 59Q      -0.687000
      5 N3          -0.6520    -0.0000     1.1690 nb         1 59Q      -0.603000
      6 FAC          0.2620    -2.1020    -4.0680 f          1 59Q      -0.204967
      7 CBB          1.4780    -1.4420    -4.2750 c3         1 59Q       0.571900
      8 FAD          2.4920    -2.1000    -3.5730 f          1 59Q      -0.204967
      9 FAE          1.7820    -1.4420    -5.6420 f          1 59Q      -0.204967
     10 CAS          1.0390     0.0010    -2.3060 cc         1 59Q      -0.030600
     11 SAR         -0.5890    -0.0060    -1.6560 ss         1 59Q      -0.246900
     12 CAG          1.9410     0.0010    -1.3450 cd         1 59Q      -0.053200
     13 C2           0.0010    -0.0000     2.3080 ca         1 59Q       0.670900
     14 NBA          3.4340    -0.0010     1.3310 nh         1 59Q      -0.457300
     15 CAK          4.0000     1.1390     0.5960 c3         1 59Q       0.130300
     16 CAI          5.5280     1.0590     0.6340 c3         1 59Q       0.133800
     17 CAJ          3.8870    -0.0010     2.7280 c3         1 59Q       0.130300
     18 CAH          5.4160    -0.0820     2.7660 c3         1 59Q       0.133800
     19 NAZ          5.9820     1.0590     2.0320 nh         1 59Q      -0.416300
     20 CAU          7.3680     1.0570     2.1050 cc         1 59Q       0.560300
     21 SAQ          8.3320     1.0510     3.5820 ss         1 59Q      -0.341800
     22 NAP          8.1900     1.0560     1.0950 nd         1 59Q      -0.365000
     23 NAO          9.4250     1.0560     1.3480 nd         1 59Q      -0.202000
     24 CAT          9.7910     1.0540     2.5880 cc         1 59Q       0.299700
     25 CAY         11.2100     1.0510     3.0960 c3         1 59Q       0.407600
     26 FAA         11.4280     2.1900     3.8790 f          1 59Q      -0.214300
     27 FAB         11.4270    -0.0950     3.8680 f          1 59Q      -0.214300
     28 H1           2.3070     0.5120    -3.9380 hc         1 59Q       0.058200
     29 H2           0.5800     0.5100    -4.3220 hc         1 59Q       0.058200
     30 H3           3.0060     0.0020    -1.5440 ha         1 59Q       0.139000
     31 H4          -0.5620    -0.0010     3.2340 h5         1 59Q       0.004100
     32 H5           3.6770     2.0630     1.0600 h1         1 59Q       0.039950
     33 H6           3.6630     1.1070    -0.4330 h1         1 59Q       0.039950
     34 H7           5.9470     1.9150     0.1190 h1         1 59Q       0.038450
     35 H8           5.8530     0.1450     0.1500 h1         1 59Q       0.038450
     36 H9           3.4690    -0.8570     3.2430 h1         1 59Q       0.039950
     37 H10          3.5630     0.9120     3.2120 h1         1 59Q       0.039950
     38 H11          5.7530    -0.0510     3.7960 h1         1 59Q       0.038450
     39 H12          5.7400    -1.0060     2.3020 h1         1 59Q       0.038450
     40 H13         11.8940     1.0550     2.2560 h2         1 59Q       0.051700
     41 CAL          1.3660     0.0000    -3.7770 c3         1 59Q       0.010800
@<TRIPOS>BOND
     1     1     2 ar  
     2     1     5 ar  
     3     1    11 1   
     4     2     3 ar  
     5     2    12 1   
     6     3     4 ar  
     7     3    14 1   
     8     4    13 ar  
     9     5    13 ar  
    10     6     7 1   
    11     7     8 1   
    12     7     9 1   
    13     7    41 1   
    14    10    11 1   
    15    10    12 2   
    16    10    41 1   
    17    12    30 1   
    18    13    31 1   
    19    14    15 1   
    20    14    17 1   
    21    15    16 1   
    22    15    32 1   
    23    15    33 1   
    24    16    19 1   
    25    16    34 1   
    26    16    35 1   
    27    17    18 1   
    28    17    36 1   
    29    17    37 1   
    30    18    19 1   
    31    18    38 1   
    32    18    39 1   
    33    19    20 1   
    34    20    21 1   
    35    20    22 2   
    36    21    24 1   
    37    22    23 1   
    38    23    24 2   
    39    24    25 1   
    40    25    26 1   
    41    25    27 1   
    42    25    40 1   
    43    28    41 1   
    44    29    41 1   
@<TRIPOS>SUBSTRUCTURE
     1 59Q         1 TEMP              0 ****  ****    0 ROOT
