@<TRIPOS>MOLECULE
59R
   53    55     1     0     0
SMALL
bcc


@<TRIPOS>ATOM
      1 C1           0.0000     0.0000     0.0000 c3         1 59R       0.208400
      2 O1           1.4290     0.0000     0.0000 os         1 59R      -0.384600
      3 C2          -0.5100    -0.0000    -1.4420 c3         1 59R       0.138800
      4 N2          -0.1210    -1.2550    -2.1000 n7         1 59R      -0.575200
      5 C3          -0.5950    -1.2900    -3.4890 c3         1 59R       0.143800
      6 C4          -0.1720    -2.6080    -4.1400 c3         1 59R       0.027900
      7 N1'          3.5460    -1.3790     2.5240 n7         1 59R      -0.576200
      8 C11         -0.6590    -2.6440    -5.5660 ca         1 59R      -0.062300
      9 C12         -1.9060    -3.1620    -5.8570 ca         1 59R      -0.133000
     10 C13         -2.3530    -3.1950    -7.1670 ca         1 59R       0.106900
     11 F13         -3.5730    -3.7000    -7.4530 f          1 59R      -0.129900
     12 C14         -1.5490    -2.7080    -8.1840 ca         1 59R      -0.137000
     13 C15         -0.3020    -2.1910    -7.8900 ca         1 59R      -0.072000
     14 C16          0.1410    -2.1540    -6.5810 ca         1 59R      -0.109000
     15 N1A          5.2010     2.8990     0.6610 nb         1 59R      -0.591000
     16 C2'          2.2630    -1.4480     1.7790 c3         1 59R       0.110800
     17 C2A          5.0500     1.8630    -0.1410 ca         1 59R       0.382600
     18 C3'          2.0110     0.0000     1.3050 c3         1 59R       0.145100
     19 C3A          6.0750     1.4540    -0.9710 ca         1 59R      -0.222300
     20 C4'          3.4040     0.6590     1.2710 c3         1 59R      -0.082700
     21 C4A          7.2780     2.1480    -0.9580 ca         1 59R      -0.062000
     22 C5'          4.3820    -0.4460     1.7270 c3         1 59R       0.140800
     23 C5A          7.4060     3.2310    -0.1060 ca         1 59R      -0.233300
     24 C6A          6.3320     3.5870     0.7030 ca         1 59R       0.496200
     25 N6A          6.4470     4.6730     1.5620 nv         1 59R      -0.656500
     26 C7A          3.7420     1.1140    -0.1500 c3         1 59R      -0.058700
     27 H1          -0.3610     0.8850     0.5110 h1         1 59R      -0.008800
     28 H1A         -0.3610    -0.8840     0.5110 h1         1 59R      -0.008800
     29 H2          -1.5900     0.0880    -1.4430 h1         1 59R       0.014200
     30 H2A         -0.0790     0.8370    -1.9770 h1         1 59R       0.014200
     31 HN2         -0.5060    -2.0290    -1.5970 hn         1 59R       0.250800
     32 H3          -0.1640    -0.4620    -4.0390 h1         1 59R       0.009200
     33 H3A         -1.6750    -1.2100    -3.5040 h1         1 59R       0.009200
     34 H4          -0.6040    -3.4360    -3.5900 hc         1 59R       0.025700
     35 H4A          0.9080    -2.6880    -4.1250 hc         1 59R       0.025700
     36 HN1'         3.3840    -0.9900     3.4320 hn         1 59R       0.249800
     37 H12         -2.5180    -3.5790    -5.0660 ha         1 59R       0.121000
     38 H14         -1.8970    -2.7360    -9.2100 ha         1 59R       0.118000
     39 H15          0.3270    -1.8090    -8.6860 ha         1 59R       0.106000
     40 H16          1.1190    -1.7490    -6.3520 ha         1 59R       0.112000
     41 H2'          1.4640    -1.7740     2.4340 h1         1 59R       0.030700
     42 H2'A         2.3570    -2.1110     0.9270 h1         1 59R       0.030700
     43 H3'          1.3700     0.5170     2.0090 h1         1 59R       0.010700
     44 H3AA         5.9420     0.6020    -1.6260 ha         1 59R       0.118000
     45 H4'          3.4390     1.4960     1.9580 hc         1 59R       0.050700
     46 H4AA         8.0970     1.8480    -1.6000 ha         1 59R       0.106000
     47 H5'          4.8010    -0.9560     0.8680 h1         1 59R       0.027700
     48 H5'A         5.1660    -0.0230     2.3430 h1         1 59R       0.027700
     49 H5A          8.3300     3.7950    -0.0710 ha         1 59R       0.117000
     50 HN6A         6.0720     5.5620     1.2980 hn         1 59R       0.275300
     51 HN6B         6.8840     4.5600     2.4560 hn         1 59R       0.275300
     52 H7A          2.9570     1.7630    -0.5180 hc         1 59R       0.038200
     53 H7AA         3.8270     0.2480    -0.7960 hc         1 59R       0.038200
@<TRIPOS>BOND
     1     1     2 1   
     2     1     3 1   
     3     1    27 1   
     4     1    28 1   
     5     2    18 1   
     6     3     4 1   
     7     3    29 1   
     8     3    30 1   
     9     4     5 1   
    10     4    31 1   
    11     5     6 1   
    12     5    32 1   
    13     5    33 1   
    14     6     8 1   
    15     6    34 1   
    16     6    35 1   
    17     7    16 1   
    18     7    22 1   
    19     7    36 1   
    20     8     9 ar  
    21     8    14 ar  
    22     9    10 ar  
    23     9    37 1   
    24    10    11 1   
    25    10    12 ar  
    26    12    13 ar  
    27    12    38 1   
    28    13    14 ar  
    29    13    39 1   
    30    14    40 1   
    31    15    17 ar  
    32    15    24 ar  
    33    16    18 1   
    34    16    41 1   
    35    16    42 1   
    36    17    19 ar  
    37    17    26 1   
    38    18    20 1   
    39    18    43 1   
    40    19    21 ar  
    41    19    44 1   
    42    20    22 1   
    43    20    26 1   
    44    20    45 1   
    45    21    23 ar  
    46    21    46 1   
    47    22    47 1   
    48    22    48 1   
    49    23    24 ar  
    50    23    49 1   
    51    24    25 1   
    52    25    50 1   
    53    25    51 1   
    54    26    52 1   
    55    26    53 1   
@<TRIPOS>SUBSTRUCTURE
     1 59R         1 TEMP              0 ****  ****    0 ROOT
