@<TRIPOS>MOLECULE
molecule
   61    65     1     0     0
SMALL
bcc


@<TRIPOS>ATOM
      1 N3           0.0000     0.0000     0.0000 nb         1 59T      -0.712000
      2 C4           1.3270     0.0000     0.0000 cp         1 59T       0.476800
      3 C5           2.0360     0.0000     1.2000 ca         1 59T      -0.238300
      4 C6           1.3360     0.0030     2.3940 ca         1 59T      -0.087000
      5 C7          -0.0520     0.0030     2.3490 ca         1 59T      -0.238300
      6 C8           2.0620    -0.0020    -1.2880 cp         1 59T      -0.120500
      7 C10          4.1400     0.0010    -2.4910 ca         1 59T       0.042400
      8 C13          1.3580    -0.0040    -2.4920 ca         1 59T      -0.093000
      9 C15          4.2550    -1.2300    -5.7830 c          1 59T       0.709700
     10 C20          6.7490     1.0240    -9.0190 ca         1 59T       0.982900
     11 C22          6.0860     2.2520    -7.1820 ca         1 59T       0.557200
     12 C24          4.7710     1.1370    -5.4360 cc         1 59T       0.004800
     13 C26          8.0680     2.1980   -10.7380 c3         1 59T       0.231100
     14 C28          3.8050    -2.5290    -8.7060 c3         1 59T       0.299900
     15 C2          -0.6910     0.0020     1.1230 ca         1 59T       0.426600
     16 C9           3.4570     0.0030    -1.2940 ca         1 59T      -0.108000
     17 C11          3.4350    -0.0050    -3.6970 ca         1 59T      -0.025800
     18 C12          2.0390    -0.0050    -3.6890 ca         1 59T      -0.106000
     19 C14          4.1680    -0.0060    -4.9830 cd         1 59T      -0.160400
     20 N17          4.9160    -1.2300    -6.9570 n          1 59T      -0.417300
     21 C18          5.5180    -0.0880    -7.4200 ca         1 59T       0.639200
     22 N19          6.1720    -0.0830    -8.5780 nb         1 59T      -0.858000
     23 N21          6.7080     2.1680    -8.3430 nb         1 59T      -0.806000
     24 C23          5.4530     1.1070    -6.6740 ca         1 59T      -0.432400
     25 C27          4.9950    -2.4630    -7.7450 c3         1 59T       0.128000
     26 O30          2.5870    -2.5190    -7.9570 os         1 59T      -0.368100
     27 C31          1.4100    -2.5520    -8.7700 c3         1 59T       0.124400
     28 C32          1.4280    -1.3490    -9.7200 c3         1 59T      -0.013500
     29 C34          2.7440    -1.3570   -10.5050 c3         1 59T       0.124400
     30 O35          3.8360    -1.4000    -9.5820 os         1 59T      -0.368100
     31 N36          0.2970    -1.4410   -10.6520 nz         1 59T      -0.864600
     32 Cl1          5.8760     0.0070    -2.4990 cl         1 59T      -0.097400
     33 H1           3.1190    -0.0000     1.1990 ha         1 59T       0.143000
     34 H2           1.8590     0.0030     3.3430 ha         1 59T       0.144000
     35 H3          -0.6290     0.0050     3.2660 ha         1 59T       0.148000
     36 H4           0.2740    -0.0040    -2.4860 ha         1 59T       0.158000
     37 H5           6.0570     3.1880    -6.6370 h4         1 59T       0.045100
     38 H6           4.7180     2.0530    -4.8590 ha         1 59T       0.155000
     39 H7           8.5380     1.9810   -11.6900 h1         1 59T       0.049700
     40 H8           8.8200     2.5320   -10.0330 h1         1 59T       0.049700
     41 H9           7.3270     2.9770   -10.8710 h1         1 59T       0.049700
     42 H10          3.8590    -3.4390    -9.2910 h2         1 59T       0.052700
     43 H11         -2.6720     0.8840     1.4850 hc         1 59T       0.089700
     44 H12         -2.6650    -0.9600     1.2290 hc         1 59T       0.089700
     45 H13         -1.7480     0.1410     0.0930 hc         1 59T       0.089700
     46 H14          4.0030     0.0080    -0.3580 ha         1 59T       0.153000
     47 H15          1.4920    -0.0080    -4.6240 ha         1 59T       0.128000
     48 H16          7.4840     0.1310   -10.7370 hn         1 59T       0.457800
     49 H17          5.9180    -2.4710    -8.3120 h1         1 59T       0.111700
     50 H18          4.9710    -3.3180    -7.0810 h1         1 59T       0.111700
     51 H19          1.3950    -3.4680    -9.3480 h1         1 59T       0.072700
     52 H20          0.5320    -2.5000    -8.1380 h1         1 59T       0.072700
     53 H21          1.3560    -0.4340    -9.1450 hx         1 59T       0.137700
     54 H22          2.8120    -0.4580   -11.1050 h1         1 59T       0.072700
     55 H23          2.7770    -2.2300   -11.1460 h1         1 59T       0.072700
     56 H24          0.1790    -0.5830   -10.1520 hn         1 59T       0.482467
     57 H25          0.5420    -1.3320   -11.6170 hn         1 59T       0.482467
     58 C1          -2.1970     0.0040     1.0690 c3         1 59T      -0.239400
     59 O16          3.7220    -2.2510    -5.3890 o          1 59T      -0.607500
     60 H363        -0.3720    -2.1510   -10.4280 hn         1 59T       0.482467
     61 N25          7.4200     0.9890   -10.2250 nu         1 59T      -0.885900
@<TRIPOS>BOND
     1     1     2 ar
     2     1    15 ar
     3     2     3 ar
     4     2     6 1
     5     3     4 ar
     6     4     5 ar
     7     5    15 ar
     8     6     8 ar
     9     6    16 ar
    10     7    16 ar
    11     7    17 ar
    12     7    32 1
    13     8    18 ar
    14     9    19 1
    15     9    59 2
    16     9    20 1
    17    10    22 ar
    18    10    23 ar
    19    10    61 1
    20    11    23 ar
    21    11    24 ar
    22    12    19 2
    23    12    24 1
    24    13    61 1
    25    14    26 1
    26    14    30 1
    27    58    15 1
    28    17    18 ar
    29    17    19 1
    30    20    21 1
    31    20    25 1
    32    21    22 ar
    33    21    24 ar
    34    26    27 1
    35    27    28 1
    36    28    29 1
    37    28    31 1
    38    29    30 1
    39    25    14 1
    40     3    33 1
    41     4    34 1
    42     5    35 1
    43     8    36 1
    44    11    37 1
    45    12    38 1
    46    13    39 1
    47    13    40 1
    48    13    41 1
    49    14    42 1
    50    58    43 1
    51    58    44 1
    52    58    45 1
    53    16    46 1
    54    18    47 1
    55    61    48 1
    56    25    49 1
    57    25    50 1
    58    27    51 1
    59    27    52 1
    60    28    53 1
    61    29    54 1
    62    29    55 1
    63    31    56 1
    64    31    57 1
    65    60    31 1
@<TRIPOS>SUBSTRUCTURE
     1 59T         1 TEMP              0 ****  ****    0 ROOT
