@<TRIPOS>MOLECULE
59U
   69    73     1     0     0
SMALL
bcc


@<TRIPOS>ATOM
      1 C10          0.0000     0.0000     0.0000 ca         1 59U       0.000200
      2 C13          1.3860     0.0010     2.4030 cp         1 59U      -0.146500
      3 C15          1.3970     0.0000     0.0000 ca         1 59U      -0.018600
      4 C17          1.4340    -0.1010     4.8930 ca         1 59U       0.278900
      5 C20          5.6110     0.1980     4.8450 c3         1 59U      -0.036400
      6 C21         -4.7270     2.1550    -6.9940 c3         1 59U       0.152800
      7 C22         -5.4020     1.8400    -8.3310 c3         1 59U      -0.038400
      8 C24         -6.8800     2.7490   -10.1290 c3         1 59U      -0.073900
      9 C26         -5.7540     5.3930    -9.7680 c3         1 59U       0.159300
     10 N02         -3.3400     2.1390    -4.6140 nb         1 59U      -0.724000
     11 C01         -3.3750     0.9960    -5.2900 ca         1 59U       0.759900
     12 N03         -2.7790    -0.1050    -4.8560 nb         1 59U      -0.749000
     13 C02         -2.1130    -0.1020    -3.7070 ca         1 59U       0.462200
     14 C03         -2.0540     1.0940    -2.9590 ca         1 59U      -0.441400
     15 C04         -2.7020     2.2320    -3.4620 ca         1 59U       0.554200
     16 N04         -1.4950    -1.2380    -3.2490 n          1 59U       0.007700
     17 C05         -0.8210    -1.2310    -2.0830 c          1 59U       0.620700
     18 C06         -0.7400    -0.0060    -1.2820 cc         1 59U      -0.172400
     19 C07         -1.3550     1.1310    -1.7320 cd         1 59U       0.031800
     20 C09         -2.7980    -3.2750    -3.6130 c3         1 59U      -0.006100
     21 O           -0.2770    -2.2480    -1.6910 o          1 59U      -0.662500
     22 C11         -0.6980     0.0010     1.2080 ca         1 59U      -0.083000
     23 C12         -0.0090     0.0010     2.4010 ca         1 59U      -0.093000
     24 C14          2.0850     0.0000     1.1950 ca         1 59U      -0.064000
     25 Cl           2.2660    -0.0010    -1.5030 cl         1 59U      -0.017400
     26 C16          2.1260     0.0020     3.6860 cp         1 59U       0.331500
     27 N05          2.0980    -0.1000     6.0330 nb         1 59U      -0.542000
     28 C18          3.4170    -0.0070     6.0340 ca         1 59U       0.279900
     29 C19          4.1080     0.0910     4.8380 ca         1 59U       0.264300
     30 N06          3.4520     0.1020     3.6920 nb         1 59U      -0.541000
     31 C23         -6.1010     3.0940    -8.8570 c3         1 59U      -0.040700
     32 C25         -7.5270     4.0200   -10.6850 c3         1 59U       0.159300
     33 N           -6.4840     5.0110   -10.9830 n3         1 59U      -0.541600
     34 C27         -5.0540     4.1630    -9.1840 c3         1 59U      -0.073900
     35 C           -5.5660     4.5150   -12.0170 c3         1 59U       0.169100
     36 H1           0.3530    -0.1780     4.8940 h4         1 59U      -0.001900
     37 H2           5.9710     0.2880     3.8270 hc         1 59U       0.016367
     38 H3           6.0340    -0.6890     5.3010 hc         1 59U       0.016367
     39 H4           5.9080     1.0720     5.4120 hc         1 59U       0.016367
     40 H5          -5.4730     2.4800    -6.2800 h1         1 59U       0.032200
     41 H6          -3.9960     2.9430    -7.1360 h1         1 59U       0.032200
     42 H7          -6.1320     1.0520    -8.1890 hc         1 59U       0.020700
     43 H8          -4.6550     1.5150    -9.0450 hc         1 59U       0.020700
     44 H10         -6.2030     2.3370   -10.8670 hc         1 59U       0.026700
     45 H11         -5.0140     6.1440   -10.0150 h1         1 59U       0.024200
     46 H12         -6.4500     5.7900    -9.0400 h1         1 59U       0.024200
     47 H14         -2.6780     3.1680    -2.9170 h4         1 59U      -0.014900
     48 H15         -1.1540     2.0810    -1.2510 ha         1 59U       0.114000
     49 H18         -3.4160    -2.6770    -2.9550 hc         1 59U       0.010700
     50 H19         -3.3700    -3.5560    -4.4890 hc         1 59U       0.010700
     51 H20         -2.4730    -4.1680    -3.0920 hc         1 59U       0.010700
     52 H21         -1.7810     0.0010     1.2080 ha         1 59U       0.110000
     53 H22         -0.5520     0.0020     3.3390 ha         1 59U       0.111000
     54 H23          3.1680    -0.0000     1.1960 ha         1 59U       0.135000
     55 H24          3.9580    -0.0060     6.9720 h4         1 59U      -0.007900
     56 H25         -6.7840     3.4750    -8.1080 hc         1 59U       0.035700
     57 H26         -8.0660     3.7820   -11.5940 h1         1 59U       0.024200
     58 H27         -8.2110     4.4270    -9.9500 h1         1 59U       0.024200
     59 H29         -4.5300     4.4430    -8.2780 hc         1 59U       0.026700
     60 H30         -4.3510     3.7710    -9.9080 hc         1 59U       0.026700
     61 H31         -6.1210     4.3110   -12.9250 h1         1 59U       0.005700
     62 H32         -4.8090     5.2630   -12.2160 h1         1 59U       0.005700
     63 H33         -5.0920     3.6040   -11.6710 h1         1 59U       0.005700
     64 C08         -1.5670    -2.4710    -4.0370 c3         1 59U       0.012000
     65 N01         -4.0580     0.9540    -6.4890 nu         1 59U      -0.465900
     66 H9          -7.6520     2.0260    -9.8940 hc         1 59U       0.026700
     67 H13         -4.1040     0.1000    -7.0100 hn         1 59U       0.302800
     68 H16         -0.6740    -3.0610    -3.8680 h1         1 59U       0.049200
     69 H17         -1.6420    -2.2240    -5.0890 h1         1 59U       0.049200
@<TRIPOS>BOND
     1     1     3 ar  
     2     1    18 1   
     3     1    22 ar  
     4     2    23 ar  
     5     2    24 ar  
     6     2    26 1   
     7     3    24 ar  
     8     3    25 1   
     9     4    26 ar  
    10     4    27 ar  
    11     4    36 1   
    12     5    29 1   
    13     5    37 1   
    14     5    38 1   
    15     5    39 1   
    16     6     7 1   
    17     6    40 1   
    18     6    41 1   
    19     6    65 1   
    20     7    31 1   
    21     7    42 1   
    22     7    43 1   
    23     8    31 1   
    24     8    32 1   
    25     8    44 1   
    26     8    66 1   
    27     9    33 1   
    28     9    34 1   
    29     9    45 1   
    30     9    46 1   
    31    10    11 ar  
    32    10    15 ar  
    33    11    12 ar  
    34    11    65 1   
    35    12    13 ar  
    36    13    14 ar  
    37    13    16 1   
    38    14    15 ar  
    39    14    19 1   
    40    15    47 1   
    41    16    17 1   
    42    16    64 1   
    43    17    18 1   
    44    17    21 2   
    45    18    19 2   
    46    19    48 1   
    47    20    49 1   
    48    20    50 1   
    49    20    51 1   
    50    20    64 1   
    51    22    23 ar  
    52    22    52 1   
    53    23    53 1   
    54    24    54 1   
    55    26    30 ar  
    56    27    28 ar  
    57    28    29 ar  
    58    28    55 1   
    59    29    30 ar  
    60    31    34 1   
    61    31    56 1   
    62    32    33 1   
    63    32    57 1   
    64    32    58 1   
    65    33    35 1   
    66    34    59 1   
    67    34    60 1   
    68    35    61 1   
    69    35    62 1   
    70    35    63 1   
    71    64    68 1   
    72    64    69 1   
    73    65    67 1   
@<TRIPOS>SUBSTRUCTURE
     1 59U         1 TEMP              0 ****  ****    0 ROOT
