@<TRIPOS>MOLECULE
molecule
   69    73     1     0     0
SMALL
bcc


@<TRIPOS>ATOM
      1 C10          0.0000     0.0000     0.0000 ca         1 59U      -0.008800
      2 C13          1.3860     0.0010     2.4030 cp         1 59U      -0.137500
      3 C15          1.3970     0.0000     0.0000 ca         1 59U       0.045400
      4 C17          1.4340    -0.1010     4.8930 ca         1 59U       0.297900
      5 C20          5.6110     0.1980     4.8450 c3         1 59U      -0.141400
      6 C21         -4.7270     2.1550    -6.9940 c3         1 59U       0.240800
      7 C22         -5.4020     1.8400    -8.3310 c3         1 59U      -0.098400
      8 C24         -6.8800     2.7490   -10.1290 c3         1 59U      -0.121900
      9 C26         -5.7540     5.3930    -9.7680 c3         1 59U       0.161800
     10 N02         -3.3400     2.1390    -4.6140 nb         1 59U      -0.819000
     11 C01         -3.3750     0.9960    -5.2900 ca         1 59U       0.983900
     12 N03         -2.7790    -0.1050    -4.8560 nb         1 59U      -0.852000
     13 C02         -2.1130    -0.1020    -3.7070 ca         1 59U       0.646200
     14 C03         -2.0540     1.0940    -2.9590 ca         1 59U      -0.436400
     15 C04         -2.7020     2.2320    -3.4620 ca         1 59U       0.553200
     16 N04         -1.4950    -1.2380    -3.2490 n          1 59U      -0.409300
     17 C05         -0.8210    -1.2310    -2.0830 c          1 59U       0.710700
     18 C06         -0.7400    -0.0060    -1.2820 cc         1 59U      -0.164400
     19 C07         -1.3550     1.1310    -1.7320 cd         1 59U      -0.002200
     20 C09         -2.7980    -3.2750    -3.6130 c3         1 59U      -0.107100
     21 O           -0.2770    -2.2480    -1.6910 o          1 59U      -0.614500
     22 C11         -0.6980     0.0010     1.2080 ca         1 59U      -0.107000
     23 C12         -0.0090     0.0010     2.4010 ca         1 59U      -0.116000
     24 C14          2.0850     0.0000     1.1950 ca         1 59U      -0.083000
     25 Cl           2.2660    -0.0010    -1.5030 cl         1 59U      -0.094400
     26 C16          2.1260     0.0020     3.6860 cp         1 59U       0.366500
     27 N05          2.0980    -0.1000     6.0330 nb         1 59U      -0.645000
     28 C18          3.4170    -0.0070     6.0340 ca         1 59U       0.291900
     29 C19          4.1080     0.0910     4.8380 ca         1 59U       0.313300
     30 N06          3.4520     0.1020     3.6920 nb         1 59U      -0.657000
     31 C23         -6.1010     3.0940    -8.8570 c3         1 59U      -0.063700
     32 C25         -7.5270     4.0200   -10.6850 c3         1 59U       0.161800
     33 N           -6.4840     5.0110   -10.9830 n3         1 59U      -0.720600
     34 C27         -5.0540     4.1630    -9.1840 c3         1 59U      -0.121900
     35 C           -5.5660     4.5150   -12.0170 c3         1 59U       0.145100
     36 H1           0.3530    -0.1780     4.8940 h4         1 59U       0.034100
     37 H2           5.9710     0.2880     3.8270 hc         1 59U       0.056367
     38 H3           6.0340    -0.6890     5.3010 hc         1 59U       0.056367
     39 H4           5.9080     1.0720     5.4120 hc         1 59U       0.056367
     40 H5          -5.4730     2.4800    -6.2800 h1         1 59U       0.055700
     41 H6          -3.9960     2.9430    -7.1360 h1         1 59U       0.055700
     42 H7          -6.1320     1.0520    -8.1890 hc         1 59U       0.048700
     43 H8          -4.6550     1.5150    -9.0450 hc         1 59U       0.048700
     44 H10         -6.2030     2.3370   -10.8670 hc         1 59U       0.048700
     45 H11         -5.0140     6.1440   -10.0150 h1         1 59U       0.055700
     46 H12         -6.4500     5.7900    -9.0400 h1         1 59U       0.055700
     47 H14         -2.6780     3.1680    -2.9170 h4         1 59U       0.036100
     48 H15         -1.1540     2.0810    -1.2510 ha         1 59U       0.145000
     49 H18         -3.4160    -2.6770    -2.9550 hc         1 59U       0.044367
     50 H19         -3.3700    -3.5560    -4.4890 hc         1 59U       0.044367
     51 H20         -2.4730    -4.1680    -3.0920 hc         1 59U       0.044367
     52 H21         -1.7810     0.0010     1.2080 ha         1 59U       0.143000
     53 H22         -0.5520     0.0020     3.3390 ha         1 59U       0.136000
     54 H23          3.1680    -0.0000     1.1960 ha         1 59U       0.168000
     55 H24          3.9580    -0.0060     6.9720 h4         1 59U       0.032100
     56 H25         -6.7840     3.4750    -8.1080 hc         1 59U       0.056700
     57 H26         -8.0660     3.7820   -11.5940 h1         1 59U       0.055700
     58 H27         -8.2110     4.4270    -9.9500 h1         1 59U       0.055700
     59 H29         -4.5300     4.4430    -8.2780 hc         1 59U       0.048700
     60 H30         -4.3510     3.7710    -9.9080 hc         1 59U       0.048700
     61 H31         -6.1210     4.3110   -12.9250 h1         1 59U       0.033700
     62 H32         -4.8090     5.2630   -12.2160 h1         1 59U       0.033700
     63 H33         -5.0920     3.6040   -11.6710 h1         1 59U       0.033700
     64 C08         -1.5670    -2.4710    -4.0370 c3         1 59U       0.096000
     65 N01         -4.0580     0.9540    -6.4890 nu         1 59U      -0.886900
     66 H9          -7.6520     2.0260    -9.8940 hc         1 59U       0.048700
     67 H13         -4.1040     0.1000    -7.0100 hn         1 59U       0.459800
     68 H16         -0.6740    -3.0610    -3.8680 h1         1 59U       0.075700
     69 H17         -1.6420    -2.2240    -5.0890 h1         1 59U       0.075700
@<TRIPOS>BOND
     1    35    33 1   
     2    33     9 1   
     3    33    32 1   
     4     9    34 1   
     5    32     8 1   
     6    34    31 1   
     7     8    31 1   
     8    31     7 1   
     9    20    64 1   
    10     7     6 1   
    11    64    16 1   
    12     6    65 1   
    13    21    17 2   
    14    16    17 1   
    15    16    13 1   
    16    12    13 ar  
    17    12    11 ar  
    18    17    18 1   
    19    65    11 1   
    20    13    14 ar  
    21    11    10 ar  
    22    25     3 1   
    23    18     1 1   
    24    18    19 2   
    25    14    19 1   
    26    14    15 ar  
    27     3     1 ar  
    28     3    24 ar  
    29     1    22 ar  
    30    10    15 ar  
    31     5    29 1   
    32    24     2 ar  
    33    22    23 ar  
    34    30    29 ar  
    35    30    26 ar  
    36     2    23 ar  
    37     2    26 1   
    38    29    28 ar  
    39    26     4 ar  
    40    28    27 ar  
    41     4    27 ar  
    42     4    36 1   
    43     5    37 1   
    44     5    38 1   
    45     5    39 1   
    46     6    40 1   
    47     6    41 1   
    48     7    42 1   
    49     7    43 1   
    50     8    66 1   
    51     8    44 1   
    52     9    45 1   
    53     9    46 1   
    54    65    67 1   
    55    15    47 1   
    56    19    48 1   
    57    64    68 1   
    58    64    69 1   
    59    20    49 1   
    60    20    50 1   
    61    20    51 1   
    62    22    52 1   
    63    23    53 1   
    64    24    54 1   
    65    28    55 1   
    66    31    56 1   
    67    32    57 1   
    68    32    58 1   
    69    34    59 1   
    70    34    60 1   
    71    35    61 1   
    72    35    62 1   
    73    35    63 1   
@<TRIPOS>SUBSTRUCTURE
     1 59U         1 TEMP              0 ****  ****    0 ROOT
