@<TRIPOS>MOLECULE
molecule
   41    44     1     0     0
SMALL
bcc


@<TRIPOS>ATOM
      1 C4           0.0000     0.0000     0.0000 ca         1 59V       0.530600
      2 C5           1.3970     0.0000     0.0000 ca         1 59V      -0.347400
      3 C6           2.0540     0.0000     1.2570 ca         1 59V       0.691200
      4 N1           1.3230    -0.0010     2.3620 nb         1 59V      -0.810000
      5 N3          -0.6510    -0.0010     1.1700 nb         1 59V      -0.726000
      6 FAA          2.4900    -2.0990    -3.5750 f          1 59V      -0.222633
      7 CBB          1.4750    -1.4420    -4.2770 c3         1 59V       0.616900
      8 FAB          1.7770    -1.4400    -5.6430 f          1 59V      -0.222633
      9 FAC          0.2590    -2.1020    -4.0690 f          1 59V      -0.222633
     10 CAT          1.0370     0.0000    -2.3070 cc         1 59V      -0.082600
     11 SAS         -0.5910    -0.0060    -1.6560 ss         1 59V      -0.090900
     12 CAH          1.9400     0.0010    -1.3460 cd         1 59V      -0.083200
     13 C2           0.0030    -0.0020     2.3090 ca         1 59V       0.718900
     14 NBA          3.4350    -0.0000     1.3280 nh         1 59V      -0.689300
     15 CAL          4.0010    -1.1400     0.5930 c3         1 59V       0.166800
     16 CAJ          3.5680    -2.4440     1.2680 c3         1 59V       0.123800
     17 CAK          3.8900     0.0000     2.7260 c3         1 59V       0.166800
     18 CAI          3.4580    -1.3040     3.4000 c3         1 59V       0.123800
     19 NAZ          4.0230    -2.4440     2.6650 nh         1 59V      -0.668300
     20 CAU          3.7100    -3.6420     3.2890 cc         1 59V       0.633300
     21 SAR          4.0650    -4.0670     4.9650 ss         1 59V      -0.239800
     22 NAP          3.0970    -4.6550     2.7460 nd         1 59V      -0.387000
     23 NAQ          2.8940    -5.6700     3.4660 nd         1 59V      -0.244000
     24 CAV          3.3060    -5.6360     4.6920 cc         1 59V       0.280700
     25 CBC          3.1580    -6.7400     5.7080 c3         1 59V       0.623600
     26 FAE          2.3160    -6.3150     6.7390 f          1 59V      -0.206300
     27 FAF          2.6090    -7.8690     5.0920 f          1 59V      -0.206300
     28 FAD          4.4150    -7.0610     6.2330 f          1 59V      -0.206300
     29 H1           2.3040     0.5130    -3.9390 hc         1 59V       0.091700
     30 H2           0.5770     0.5110    -4.3220 hc         1 59V       0.091700
     31 H3           3.0050     0.0030    -1.5450 ha         1 59V       0.162000
     32 H4          -0.5590    -0.0020     3.2350 h5         1 59V       0.067100
     33 H5           5.0820    -1.0720     0.6010 h1         1 59V       0.080950
     34 H6           3.6400    -1.1250    -0.4280 h1         1 59V       0.080950
     35 H7           2.4880    -2.5220     1.2400 h1         1 59V       0.074450
     36 H8           4.0100    -3.2840     0.7450 h1         1 59V       0.074450
     37 H9           4.9700     0.0790     2.7530 h1         1 59V       0.080950
     38 H10          3.4480     0.8400     3.2480 h1         1 59V       0.080950
     39 H11          2.3760    -1.3720     3.3940 h1         1 59V       0.074450
     40 H12          3.8200    -1.3180     4.4210 h1         1 59V       0.074450
     41 CAM          1.3630     0.0010    -3.7780 c3         1 59V      -0.054200
@<TRIPOS>BOND
     1    28    25 1
     2    26    25 1
     3    25    27 1
     4    25    24 1
     5    21    24 1
     6    21    20 1
     7    41    10 1
     8    41     7 1
     9    24    23 2
    10    11    10 1
    11    11     1 1
    12    10    12 2
    13    16    15 1
    14    16    19 1
    15     8     7 1
    16     1     5 ar
    17     1     2 ar
    18    12     2 1
    19     5    13 ar
    20     2     3 ar
    21     7     9 1
    22     7     6 1
    23    15    14 1
    24    20    19 1
    25    20    22 2
    26    13     4 ar
    27    23    22 1
    28     3     4 ar
    29     3    14 1
    30    19    18 1
    31    14    17 1
    32    17    18 1
    33    41    29 1
    34    41    30 1
    35    12    31 1
    36    13    32 1
    37    15    33 1
    38    15    34 1
    39    16    35 1
    40    16    36 1
    41    17    37 1
    42    17    38 1
    43    18    39 1
    44    18    40 1
@<TRIPOS>SUBSTRUCTURE
     1 59V         1 TEMP              0 ****  ****    0 ROOT
