@<TRIPOS>MOLECULE
molecule
   53    55     1     0     0
SMALL
bcc


@<TRIPOS>ATOM
      1 C1           0.0000     0.0000     0.0000 c3         1 59W       0.139400
      2 O1           1.4290     0.0000     0.0000 os         1 59W      -0.409600
      3 C2          -0.5100     0.0000    -1.4420 c3         1 59W       0.158800
      4 N2          -0.1220    -1.2550    -2.1000 n7         1 59W      -0.810200
      5 C3          -0.5960    -1.2910    -3.4890 c3         1 59W       0.159800
      6 C4          -0.1730    -2.6100    -4.1390 c3         1 59W      -0.037100
      7 N1'          3.5460     1.3790     2.5260 n7         1 59W      -0.798200
      8 C11         -0.6590    -2.6460    -5.5650 ca         1 59W      -0.058300
      9 C12          0.1410    -2.1560    -6.5800 ca         1 59W      -0.163000
     10 C13         -0.3060    -2.1900    -7.8910 ca         1 59W       0.135900
     11 F13          0.4750    -1.7130    -8.8830 f          1 59W      -0.140900
     12 C14         -1.5550    -2.7140    -8.1820 ca         1 59W      -0.171000
     13 C15         -2.3520    -3.2040    -7.1640 ca         1 59W      -0.101000
     14 C16         -1.9030    -3.1730    -5.8580 ca         1 59W      -0.143000
     15 N1A          6.1260    -1.2890     0.3640 nb         1 59W      -0.770000
     16 C2'          2.2620     1.4470     1.7800 c3         1 59W       0.110800
     17 C2A          5.0500    -1.8630    -0.1410 ca         1 59W       0.474600
     18 C3'          2.0100     0.0000     1.3050 c3         1 59W       0.134100
     19 C3A          5.1090    -3.1410    -0.6600 ca         1 59W      -0.306300
     20 C4'          3.4050    -0.6590     1.2700 c3         1 59W      -0.058700
     21 C4A          6.3160    -3.8250    -0.6490 ca         1 59W      -0.053000
     22 C5'          4.3820     0.4460     1.7270 c3         1 59W       0.151800
     23 C5A          7.4260    -3.1970    -0.1140 ca         1 59W      -0.327300
     24 C6A          7.2950    -1.9080     0.3930 ca         1 59W       0.705200
     25 N6A          8.4030    -1.2650     0.9340 nv         1 59W      -1.019500
     26 C7A          3.7420    -1.1150    -0.1500 c3         1 59W      -0.114700
     27 H1          -0.3610    -0.8840     0.5110 h1         1 59W       0.024700
     28 H1A         -0.3610     0.8850     0.5110 h1         1 59W       0.024700
     29 H2          -0.0780     0.8370    -1.9780 h1         1 59W       0.042700
     30 H2A         -1.5890     0.0900    -1.4430 h1         1 59W       0.042700
     31 HN2         -0.5080    -2.0280    -1.5960 hn         1 59W       0.348800
     32 H3          -0.1640    -0.4630    -4.0390 h1         1 59W       0.036200
     33 H3A         -1.6760    -1.2110    -3.5050 h1         1 59W       0.036200
     34 H4          -0.6040    -3.4380    -3.5890 hc         1 59W       0.058200
     35 H4A          0.9080    -2.6900    -4.1240 hc         1 59W       0.058200
     36 HN1'         3.9740     2.2830     2.5380 hn         1 59W       0.345800
     37 H12          1.1330    -1.7840    -6.3560 ha         1 59W       0.149000
     38 H14         -1.9060    -2.7390    -9.2060 ha         1 59W       0.144000
     39 H15         -3.3280    -3.6150    -7.3920 ha         1 59W       0.136000
     40 H16         -2.5290    -3.5570    -5.0620 ha         1 59W       0.133000
     41 H2'          2.3560     2.1120     0.9300 h1         1 59W       0.044200
     42 H2'A         1.4630     1.7720     2.4360 h1         1 59W       0.044200
     43 H3'          1.3690    -0.5180     2.0080 h1         1 59W       0.046700
     44 H3AA         4.2210    -3.6050    -1.0730 ha         1 59W       0.138000
     45 H4'          3.4390    -1.4960     1.9570 hc         1 59W       0.065700
     46 H4AA         6.3880    -4.8280    -1.0510 ha         1 59W       0.133000
     47 H5'          5.1660     0.0230     2.3430 h1         1 59W       0.054700
     48 H5'A         4.8000     0.9560     0.8690 h1         1 59W       0.054700
     49 H5A          8.3840    -3.7020    -0.0890 ha         1 59W       0.132000
     50 HN6A         9.2270    -1.7880     1.1510 hn         1 59W       0.437300
     51 HN6B         8.3920    -0.2720     1.0600 hn         1 59W       0.437300
     52 H7A          3.8250    -0.2490    -0.7970 hc         1 59W       0.072200
     53 H7AA         2.9570    -1.7650    -0.5170 hc         1 59W       0.072200
@<TRIPOS>BOND
     1     3     1 1   
     2     2     1 1   
     3     1    27 1   
     4     1    28 1   
     5     2    18 1   
     6     4     3 1   
     7     3    29 1   
     8     3    30 1   
     9     5     4 1   
    10     4    31 1   
    11     5     6 1   
    12     5    32 1   
    13     5    33 1   
    14     8     6 1   
    15     6    34 1   
    16     6    35 1   
    17    16     7 1   
    18     7    22 1   
    19     7    36 1   
    20     9     8 ar  
    21    14     8 ar  
    22    10     9 ar  
    23     9    37 1   
    24    11    10 1   
    25    12    10 ar  
    26    12    13 ar  
    27    12    38 1   
    28    13    14 ar  
    29    13    39 1   
    30    14    40 1   
    31    15    17 ar  
    32    15    24 ar  
    33    16    18 1   
    34    16    41 1   
    35    16    42 1   
    36    26    17 1   
    37    17    19 ar  
    38    18    20 1   
    39    18    43 1   
    40    19    21 ar  
    41    19    44 1   
    42    26    20 1   
    43    22    20 1   
    44    20    45 1   
    45    23    21 ar  
    46    21    46 1   
    47    22    47 1   
    48    22    48 1   
    49    24    23 ar  
    50    23    49 1   
    51    25    24 1   
    52    25    50 1   
    53    25    51 1   
    54    26    52 1   
    55    26    53 1   
@<TRIPOS>SUBSTRUCTURE
     1 59W         1 TEMP              0 ****  ****    0 ROOT
