@<TRIPOS>MOLECULE
59X
   47    50     1     0     0
SMALL
bcc


@<TRIPOS>ATOM
      1 C4           0.0000     0.0000     0.0000 ca         1 59X       0.537600
      2 C5           1.3980     0.0000     0.0000 ca         1 59X      -0.339400
      3 C6           2.0530     0.0000     1.2580 ca         1 59X       0.568200
      4 N1           1.3220     0.0010     2.3620 nb         1 59X      -0.686000
      5 N3          -0.6520    -0.0050     1.1700 nb         1 59X      -0.605000
      6 FAC          1.7770    -1.4450    -5.6420 f          1 59X      -0.230300
      7 CAF          1.4740    -1.4440    -4.2760 c3         1 59X       0.208900
      8 CAS          1.0390    -0.0010    -2.3070 cc         1 59X      -0.006600
      9 SAQ         -0.5890    -0.0000    -1.6560 ss         1 59X      -0.267900
     10 CAE          1.9410    -0.0010    -1.3450 cd         1 59X      -0.079200
     11 C2           0.0020     0.0010     2.3080 ca         1 59X       0.665900
     12 NAX          3.4350    -0.0010     1.3300 nh         1 59X      -0.452300
     13 CAK          4.0020     1.1310     0.5850 c3         1 59X       0.111800
     14 CAI          5.5270     0.9940     0.5370 c3         1 59X       0.168300
     15 CAJ          3.8890    -0.0000     2.7270 c3         1 59X       0.111800
     16 CAH          5.4100    -0.1840     2.7670 c3         1 59X       0.168300
     17 NAW          6.0260     0.8420     1.9120 nh         1 59X      -0.405600
     18 CAR          7.0440     1.6380     2.3860 c2         1 59X       0.561100
     19 SAP          7.7250     1.5500     4.0140 ss         1 59X      -0.380300
     20 CAY          8.9410     2.8860     3.7720 c3         1 59X       0.031100
     21 CAA          8.6740     4.0400     4.7420 c3         1 59X       0.023900
     22 CAB         10.3660     2.3570     3.9460 c3         1 59X       0.023900
     23 CAL          8.6950     3.3280     2.3220 c3         1 59X       0.172800
     24 NAM          7.6400     2.5520     1.7090 n2         1 59X      -0.657900
     25 H1           0.5320    -1.9540    -4.1140 h1         1 59X       0.016700
     26 H2           2.2590    -1.9560    -3.7310 h1         1 59X       0.016700
     27 H3           0.5810     0.5100    -4.3230 hc         1 59X       0.036200
     28 H4           2.3080     0.5080    -3.9400 hc         1 59X       0.036200
     29 H5           3.0060    -0.0030    -1.5440 ha         1 59X       0.138000
     30 H6          -0.5600     0.0020     3.2350 h5         1 59X       0.003100
     31 H7           3.7390     2.0570     1.0830 h1         1 59X       0.038700
     32 H8           3.6080     1.1320    -0.4240 h1         1 59X       0.038700
     33 H9           5.9580     1.8820     0.0900 h1         1 59X       0.039700
     34 H10          5.7950     0.1210    -0.0450 h1         1 59X       0.039700
     35 H11          3.4140    -0.8150     3.2610 h1         1 59X       0.038700
     36 H12          3.6280     0.9440     3.1900 h1         1 59X       0.038700
     37 H13          5.6660    -1.1690     2.3960 h1         1 59X       0.039700
     38 H14          5.7630    -0.0690     3.7850 h1         1 59X       0.039700
     39 H15          9.3980     4.8280     4.5740 hc         1 59X       0.015367
     40 H16          8.7600     3.6820     5.7610 hc         1 59X       0.015367
     41 H17          7.6750     4.4260     4.5780 hc         1 59X       0.015367
     42 H18         10.4980     2.0010     4.9600 hc         1 59X       0.015367
     43 H19         11.0730     3.1530     3.7470 hc         1 59X       0.015367
     44 H20         10.5350     1.5420     3.2520 hc         1 59X       0.015367
     45 H21          9.6080     3.1960     1.7530 h1         1 59X       0.035200
     46 H22          8.4150     4.3740     2.3140 h1         1 59X       0.035200
     47 CAG          1.3650    -0.0020    -3.7790 c3         1 59X       0.031800
@<TRIPOS>BOND
     1     1     2 ar  
     2     1     5 ar  
     3     1     9 1   
     4     2     3 ar  
     5     2    10 1   
     6     3     4 ar  
     7     3    12 1   
     8     4    11 ar  
     9     5    11 ar  
    10     6     7 1   
    11     7    25 1   
    12     7    26 1   
    13     7    47 1   
    14     8     9 1   
    15     8    10 2   
    16     8    47 1   
    17    10    29 1   
    18    11    30 1   
    19    12    13 1   
    20    12    15 1   
    21    13    14 1   
    22    13    31 1   
    23    13    32 1   
    24    14    17 1   
    25    14    33 1   
    26    14    34 1   
    27    15    16 1   
    28    15    35 1   
    29    15    36 1   
    30    16    17 1   
    31    16    37 1   
    32    16    38 1   
    33    17    18 1   
    34    18    19 1   
    35    18    24 2   
    36    19    20 1   
    37    20    21 1   
    38    20    22 1   
    39    20    23 1   
    40    21    39 1   
    41    21    40 1   
    42    21    41 1   
    43    22    42 1   
    44    22    43 1   
    45    22    44 1   
    46    23    24 1   
    47    23    45 1   
    48    23    46 1   
    49    27    47 1   
    50    28    47 1   
@<TRIPOS>SUBSTRUCTURE
     1 59X         1 TEMP              0 ****  ****    0 ROOT
