@<TRIPOS>MOLECULE
molecule
   47    50     1     0     0
SMALL
bcc


@<TRIPOS>ATOM
      1 C4           0.0000     0.0000     0.0000 ca         1 59X       0.528600
      2 C5           1.3980     0.0000     0.0000 ca         1 59X      -0.344400
      3 C6           2.0530     0.0000     1.2580 ca         1 59X       0.693200
      4 N1           1.3220     0.0010     2.3620 nb         1 59X      -0.800000
      5 N3          -0.6520    -0.0050     1.1700 nb         1 59X      -0.732000
      6 FAC          1.7770    -1.4450    -5.6420 f          1 59X      -0.248300
      7 CAF          1.4740    -1.4440    -4.2760 c3         1 59X       0.163900
      8 CAS          1.0390    -0.0010    -2.3070 cc         1 59X      -0.060600
      9 SAQ         -0.5890    -0.0000    -1.6560 ss         1 59X      -0.126900
     10 CAE          1.9410    -0.0010    -1.3450 cd         1 59X      -0.107200
     11 C2           0.0020     0.0010     2.3080 ca         1 59X       0.717900
     12 NAX          3.4350    -0.0010     1.3300 nh         1 59X      -0.695300
     13 CAK          4.0020     1.1310     0.5850 c3         1 59X       0.146800
     14 CAI          5.5270     0.9940     0.5370 c3         1 59X       0.240800
     15 CAJ          3.8890    -0.0000     2.7270 c3         1 59X       0.146800
     16 CAH          5.4100    -0.1840     2.7670 c3         1 59X       0.240800
     17 NAW          6.0260     0.8420     1.9120 nh         1 59X      -0.776600
     18 CAR          7.0440     1.6380     2.3860 c2         1 59X       0.720100
     19 SAP          7.7250     1.5500     4.0140 ss         1 59X      -0.357300
     20 CAY          8.9410     2.8860     3.7720 c3         1 59X       0.012100
     21 CAA          8.6740     4.0400     4.7420 c3         1 59X      -0.072600
     22 CAB         10.3660     2.3570     3.9460 c3         1 59X      -0.072600
     23 CAL          8.6950     3.3280     2.3220 c3         1 59X       0.146800
     24 NAM          7.6400     2.5520     1.7090 n2         1 59X      -0.729900
     25 H1           0.5320    -1.9540    -4.1140 h1         1 59X       0.050700
     26 H2           2.2590    -1.9560    -3.7310 h1         1 59X       0.050700
     27 H3           0.5810     0.5100    -4.3230 hc         1 59X       0.068700
     28 H4           2.3080     0.5080    -3.9400 hc         1 59X       0.068700
     29 H5           3.0060    -0.0030    -1.5440 ha         1 59X       0.159000
     30 H6          -0.5600     0.0020     3.2350 h5         1 59X       0.064100
     31 H7           3.7390     2.0570     1.0830 h1         1 59X       0.064450
     32 H8           3.6080     1.1320    -0.4240 h1         1 59X       0.064450
     33 H9           5.9580     1.8820     0.0900 h1         1 59X       0.067950
     34 H10          5.7950     0.1210    -0.0450 h1         1 59X       0.067950
     35 H11          3.4140    -0.8150     3.2610 h1         1 59X       0.064450
     36 H12          3.6280     0.9440     3.1900 h1         1 59X       0.064450
     37 H13          5.6660    -1.1690     2.3960 h1         1 59X       0.067950
     38 H14          5.7630    -0.0690     3.7850 h1         1 59X       0.067950
     39 H15          9.3980     4.8280     4.5740 hc         1 59X       0.046533
     40 H16          8.7600     3.6820     5.7610 hc         1 59X       0.046533
     41 H17          7.6750     4.4260     4.5780 hc         1 59X       0.046533
     42 H18         10.4980     2.0010     4.9600 hc         1 59X       0.046533
     43 H19         11.0730     3.1530     3.7470 hc         1 59X       0.046533
     44 H20         10.5350     1.5420     3.2520 hc         1 59X       0.046533
     45 H21          9.6080     3.1960     1.7530 h1         1 59X       0.068200
     46 H22          8.4150     4.3740     2.3140 h1         1 59X       0.068200
     47 CAG          1.3650    -0.0020    -3.7790 c3         1 59X      -0.042200
@<TRIPOS>BOND
     1    14    13 1   
     2    14    17 1   
     3    13    12 1   
     4    24    23 1   
     5    24    18 2   
     6    12     3 1   
     7    12    15 1   
     8     4     3 ar  
     9     4    11 ar  
    10     3     2 ar  
    11    11     5 ar  
    12    17    18 1   
    13    17    16 1   
    14    23    20 1   
    15    15    16 1   
    16    18    19 1   
    17     6     7 1   
    18     2     1 ar  
    19     2    10 1   
    20     7    47 1   
    21     5     1 ar  
    22     1     9 1   
    23    10     8 2   
    24     8     9 1   
    25     8    47 1   
    26    22    20 1   
    27    20    19 1   
    28    20    21 1   
    29     7    25 1   
    30     7    26 1   
    31    47    27 1   
    32    47    28 1   
    33    10    29 1   
    34    11    30 1   
    35    13    31 1   
    36    13    32 1   
    37    14    33 1   
    38    14    34 1   
    39    15    35 1   
    40    15    36 1   
    41    16    37 1   
    42    16    38 1   
    43    21    39 1   
    44    21    40 1   
    45    21    41 1   
    46    22    42 1   
    47    22    43 1   
    48    22    44 1   
    49    23    45 1   
    50    23    46 1   
@<TRIPOS>SUBSTRUCTURE
     1 59X         1 TEMP              0 ****  ****    0 ROOT
