@<TRIPOS>MOLECULE
59Y
   35    38     1     0     0
SMALL
bcc


@<TRIPOS>ATOM
      1 C1         -0.3820    0.3290    0.1870 cp        1 59Y     -0.088300
      2 C2          0.9130    0.8090    0.1150 ca        1 59Y     -0.133000
      3 C3          1.7440    0.8600    1.2520 ca        1 59Y     -0.165000
      4 C11        -0.5560   -0.5400    3.8360 ca        1 59Y     -0.127000
      5 C12        -1.8260   -1.0390    3.8940 ca        1 59Y     -0.208300
      6 C13        -2.6210   -1.0910    2.6910 ca        1 59Y      0.403800
      7 C15        -4.0340   -1.7150    2.8470 c         1 59Y      0.826100
      8 C16        -2.1880    1.3710   -2.9990 ca        1 59Y     -0.039000
      9 C17        -1.4470    1.4660   -1.7910 ca        1 59Y     -0.021000
     10 C18        -0.9940    2.7500   -1.3750 ca        1 59Y     -0.106000
     11 C19        -1.2390    3.8670   -2.1330 ca        1 59Y     -0.148000
     12 C20        -1.9550    3.7640   -3.3500 ca        1 59Y     -0.140000
     13 C21        -2.4210    2.5440   -3.7700 ca        1 59Y     -0.123000
     14 C4          1.2730    0.4280    2.4680 ca        1 59Y     -0.104000
     15 C5         -1.2030    0.2800   -1.0280 cp        1 59Y     -0.003000
     16 C6         -2.6970    0.1120   -3.4130 ca        1 59Y     -0.137000
     17 C7         -1.7280   -0.9250   -1.4550 ca        1 59Y     -0.082000
     18 C8         -2.4790   -1.0070   -2.6490 ca        1 59Y     -0.116000
     19 C9         -0.8990   -0.1460    1.4440 ca        1 59Y      0.417600
     20 C10        -0.0420   -0.0780    2.5870 ca        1 59Y     -0.167300
     21 N14        -2.1840   -0.6550    1.5200 nb        1 59Y     -0.665000
     22 O22        -4.9020   -0.9930    3.3970 o         1 59Y     -0.802300
     23 O23        -4.1680   -2.9030    2.4660 o         1 59Y     -0.802300
     24 H1          1.3100    1.1600   -0.8500 ha        1 59Y      0.124000
     25 H2          2.7680    1.2470    1.1490 ha        1 59Y      0.115000
     26 H3          0.0870   -0.4820    4.7250 ha        1 59Y      0.114000
     27 H4         -2.2800   -1.4020    4.8270 ha        1 59Y      0.148000
     28 H7         -2.1380    4.6710   -3.9420 ha        1 59Y      0.117000
     29 H8         -2.9920    2.4500   -4.7050 ha        1 59Y      0.120000
     30 H9          1.9090    0.4650    3.3650 ha        1 59Y      0.117000
     31 H10        -3.2770    0.0570   -4.3460 ha        1 59Y      0.120000
     32 H11        -1.5830   -1.8380   -0.8550 ha        1 59Y      0.159000
     33 H12        -2.8930   -1.9820   -2.9470 ha        1 59Y      0.130000
     34 H5         -0.4540    2.8310   -0.4180 ha        1 59Y      0.144000
     35 H6         -0.8910    4.8550   -1.8010 ha        1 59Y      0.120000
@<TRIPOS>BOND
     1    1    2 ar  
     2    1   15 1   
     3    1   19 ar  
     4    2    3 ar  
     5    2   24 1   
     6    3   14 ar  
     7    3   25 1   
     8    4    5 ar  
     9    4   20 ar  
    10    4   26 1   
    11    5    6 ar  
    12    5   27 1   
    13    6    7 1   
    14    6   21 ar  
    15    7   22 1   
    16    7   23 1   
    17    8    9 ar  
    18    8   13 ar  
    19    8   16 ar  
    20    9   10 ar  
    21    9   15 ar  
    22   10   11 ar  
    23   10   34 1   
    24   11   12 ar  
    25   11   35 1   
    26   12   13 ar  
    27   12   28 1   
    28   13   29 1   
    29   14   20 ar  
    30   14   30 1   
    31   15   17 ar  
    32   16   18 ar  
    33   16   31 1   
    34   17   18 ar  
    35   17   32 1   
    36   18   33 1   
    37   19   20 ar  
    38   19   21 ar  
@<TRIPOS>SUBSTRUCTURE
     1 59Y         1 TEMP              0 ****  ****    0 ROOT
