@<TRIPOS>MOLECULE
molecule
   35    38     1     0     0
SMALL
bcc


@<TRIPOS>ATOM
      1 C1           0.0000     0.0000     0.0000 cp         1 59Y      -0.079300
      2 C2           1.3850     0.0000     0.0000 ca         1 59Y      -0.132000
      3 C3           2.0950     0.0000     1.1940 ca         1 59Y      -0.157000
      4 C11         -0.6010    -0.0050     3.7180 ca         1 59Y      -0.127000
      5 C12         -1.9660    -0.0170     3.7170 ca         1 59Y      -0.213300
      6 C13         -2.6650     0.0010     2.5010 ca         1 59Y       0.428800
      7 C15         -4.1460    -0.0120     2.5150 c          1 59Y       0.775100
      8 C16         -2.2760     1.0820    -2.8480 ca         1 59Y      -0.026000
      9 C17         -1.5650     1.1060    -1.6230 ca         1 59Y       0.001000
     10 C18         -1.6740     2.2230    -0.7850 ca         1 59Y      -0.073000
     11 C19         -2.4630     3.2710    -1.1560 ca         1 59Y      -0.132000
     12 C20         -3.1640     3.2490    -2.3590 ca         1 59Y      -0.119000
     13 C21         -3.0810     2.1790    -3.1980 ca         1 59Y      -0.129000
     14 C4           1.4660     0.0000     2.4010 ca         1 59Y      -0.107000
     15 C5          -0.7550    -0.0010    -1.2710 cp         1 59Y       0.013000
     16 C6          -2.1720    -0.0410    -3.6870 ca         1 59Y      -0.124000
     17 C7          -0.6770    -1.0840    -2.1310 ca         1 59Y      -0.128000
     18 C8          -1.3870    -1.0940    -3.3260 ca         1 59Y      -0.129000
     19 C9          -0.7030    -0.0070     1.2840 ca         1 59Y       0.417600
     20 C10          0.0640     0.0000     2.4780 ca         1 59Y      -0.174300
     21 N14         -2.0290    -0.0060     1.3420 nb         1 59Y      -0.637000
     22 O22         -4.7420    -0.0380     3.5720 o          1 59Y      -0.810800
     23 O23         -4.8300     0.0050     1.3560 o          1 59Y      -0.810800
     24 H1           1.9210    -0.0000    -0.9410 ha         1 59Y       0.122000
     25 H2           3.1780    -0.0000     1.1640 ha         1 59Y       0.110000
     26 H3          -0.0440    -0.0180     4.6480 ha         1 59Y       0.118000
     27 H4          -2.5080     0.0230     4.6540 ha         1 59Y       0.156000
     28 H7          -3.7850     4.0940    -2.6310 ha         1 59Y       0.114000
     29 H8          -3.6310     2.1750    -4.1320 ha         1 59Y       0.118000
     30 H9           2.0530     0.0000     3.3110 ha         1 59Y       0.114000
     31 H10         -2.7180    -0.0690    -4.6230 ha         1 59Y       0.118000
     32 H11         -0.0600    -1.9350    -1.8670 ha         1 59Y       0.124000
     33 H12         -1.3110    -1.9520    -3.9830 ha         1 59Y       0.113000
     34 H5          -1.1350     2.2540     0.1540 ha         1 59Y       0.143000
     35 H6          -2.5460     4.1340    -0.5050 ha         1 59Y       0.121000
@<TRIPOS>BOND
     1    22     7 1
     2    23     7 1
     3     7     6 1
     4     6     5 ar
     5     6    21 ar
     6     5     4 ar
     7    21    19 ar
     8     4    20 ar
     9    18    16 ar
    10    18    17 ar
    11    16     8 ar
    12    19    20 ar
    13    19     1 ar
    14    17    15 ar
    15     8    13 ar
    16     8     9 ar
    17    20    14 ar
    18    13    12 ar
    19    15     9 ar
    20    15     1 1
    21     9    10 ar
    22    12    11 ar
    23     1     2 ar
    24    10    11 ar
    25    14     3 ar
    26     2     3 ar
    27     2    24 1
    28     3    25 1
    29     4    26 1
    30     5    27 1
    31    10    34 1
    32    11    35 1
    33    12    28 1
    34    13    29 1
    35    14    30 1
    36    16    31 1
    37    17    32 1
    38    18    33 1
@<TRIPOS>SUBSTRUCTURE
     1 59Y         1 TEMP              0 ****  ****    0 ROOT
