@<TRIPOS>MOLECULE
molecule
   37    39     1     0     0
SMALL
bcc


@<TRIPOS>ATOM
      1 C7           0.0000     0.0000     0.0000 c3         1 59Z      -0.057200
      2 C17         -2.9340     6.6360     1.5160 ca         1 59Z       0.009000
      3 C21         -2.5810     5.1960     3.8950 ca         1 59Z      -0.045000
      4 C24         -1.5770     3.3990     2.3220 cc         1 59Z      -0.207200
      5 C26         -3.9070     8.4520     2.8050 ca         1 59Z      -0.148000
      6 C28         -4.0790     9.1560     1.6500 ca         1 59Z      -0.158000
      7 P1           1.8230     0.0000     0.0000 p5         1 59Z       1.024700
      8 O2           2.3170     0.0000     1.3950 o          1 59Z      -0.905500
      9 O3           2.3590    -1.3140    -0.7590 o          1 59Z      -0.905500
     10 O5           2.3590     1.3140    -0.7600 o          1 59Z      -0.905500
     11 N10         -0.4880     1.1320     0.7920 ns         1 59Z      -0.507900
     12 C12         -0.8080     2.2910     0.1850 c          1 59Z       0.660300
     13 O13         -0.6070     2.4300    -1.0070 o          1 59Z      -0.578100
     14 C14         -1.4000     3.3870     0.9730 cd         1 59Z      -0.054300
     15 N15         -1.8670     4.5760     0.4500 na         1 59Z       0.058600
     16 C16         -2.3470     5.3500     1.4710 ca         1 59Z      -0.047200
     17 C18         -3.3300     7.1750     2.7620 ca         1 59Z      -0.023000
     18 C19         -3.1400     6.4270     3.9450 ca         1 59Z      -0.218000
     19 C23         -2.1740     4.6340     2.6650 ca         1 59Z      -0.143800
     20 C30         -3.6940     8.6230     0.4240 ca         1 59Z      -0.170000
     21 C32         -3.1250     7.3860     0.3480 ca         1 59Z      -0.089000
     22 C34         -1.8540     4.9470    -0.9670 c3         1 59Z      -0.094700
     23 C37         -0.6300     5.7770    -1.2580 c          1 59Z       0.891600
     24 O38          0.1500     6.0330    -0.3720 o          1 59Z      -0.830300
     25 O39         -0.4080     6.2340    -2.5000 o          1 59Z      -0.830300
     26 H1          -0.3610    -0.9260     0.4320 h1         1 59Z       0.024700
     27 H2          -0.3610     0.0890    -1.0170 h1         1 59Z       0.024700
     28 H5          -4.2110     8.8800     3.7530 ha         1 59Z       0.097000
     29 H6          -4.5290    10.1410     1.6870 ha         1 59Z       0.086000
     30 H9          -0.6150     1.0330     1.7800 hn         1 59Z       0.287500
     31 H10         -3.4430     6.8410     4.8980 ha         1 59Z       0.093000
     32 H11         -3.8400     9.2010    -0.4800 ha         1 59Z       0.107000
     33 H12         -2.8290     6.9820    -0.6130 ha         1 59Z       0.174000
     34 H13         -2.7430     5.5210    -1.1990 h1         1 59Z       0.065700
     35 H14         -1.8340     4.0500    -1.5750 h1         1 59Z       0.065700
     36 H3          -2.4440     4.6340     4.8110 ha         1 59Z       0.100000
     37 H4          -1.2150     2.6520     3.0180 ha         1 59Z       0.146000
@<TRIPOS>BOND
     1     8     7 1
     2    24    23 1
     3     9     7 1
     4     7    10 1
     5     7     1 1
     6    13    12 2
     7    23    25 1
     8    23    22 1
     9     3    18 ar
    10     3    19 ar
    11     4    19 1
    12     4    14 2
    13    18    17 ar
    14    19    16 ar
    15    12    14 1
    16    12    11 1
    17    14    15 1
    18    17     2 ar
    19    17     5 ar
    20    16    15 1
    21    16     2 ar
    22    15    22 1
    23     2    21 ar
    24     1    11 1
    25     5     6 ar
    26    21    20 ar
    27     6    20 ar
    28     1    26 1
    29     1    27 1
    30     3    36 1
    31     4    37 1
    32     5    28 1
    33     6    29 1
    34    11    30 1
    35    18    31 1
    36    20    32 1
    37    21    33 1
    38    22    34 1
    39    22    35 1
@<TRIPOS>SUBSTRUCTURE
     1 59Z         1 TEMP              0 ****  ****    0 ROOT
