@<TRIPOS>MOLECULE
molecule
   47    50     1     0     0
SMALL
bcc


@<TRIPOS>ATOM
      1 C4           0.0000     0.0000     0.0000 ca         1 5A0       0.526600
      2 C5           1.3970     0.0000     0.0000 ca         1 5A0      -0.347400
      3 C6           2.0540     0.0000     1.2570 ca         1 5A0       0.694200
      4 N1           1.3220    -0.0000     2.3620 nb         1 5A0      -0.801000
      5 N3          -0.6510    -0.0010     1.1700 nb         1 5A0      -0.732000
      6 FAC          0.2310    -2.0690    -4.1740 f          1 5A0      -0.238300
      7 CAW          1.4770    -1.4410    -4.2770 c3         1 5A0       0.398900
      8 FAD          1.8910    -1.4420    -5.6120 f          1 5A0      -0.238300
      9 CAS          1.0380     0.0000    -2.3070 cc         1 5A0      -0.071600
     10 SAQ         -0.5900    -0.0070    -1.6560 ss         1 5A0      -0.097900
     11 CAF          1.9410     0.0020    -1.3460 cd         1 5A0      -0.103200
     12 C2           0.0020    -0.0010     2.3080 ca         1 5A0       0.719900
     13 NAY          3.4350     0.0000     1.3290 nh         1 5A0      -0.695300
     14 CAJ          4.0010    -1.1330     0.5850 c3         1 5A0       0.147300
     15 CAH          5.5270    -0.9970     0.5370 c3         1 5A0       0.240800
     16 CAI          3.8890     0.0010     2.7270 c3         1 5A0       0.147300
     17 CAG          5.4100     0.1830     2.7660 c3         1 5A0       0.240800
     18 NAX          6.0260    -0.8440     1.9120 nh         1 5A0      -0.776600
     19 CAR          7.0420    -1.6400     2.3860 c2         1 5A0       0.721100
     20 SAP          7.7200    -1.5560     4.0170 ss         1 5A0      -0.357300
     21 CAZ          8.9380    -2.8890     3.7750 c3         1 5A0       0.011100
     22 CAA         10.3620    -2.3600     3.9520 c3         1 5A0      -0.072100
     23 CAB          8.6700    -4.0470     4.7390 c3         1 5A0      -0.072100
     24 CAK          8.6960    -3.3280     2.3220 c3         1 5A0       0.146800
     25 NAM          7.6350    -2.5580     1.7120 n2         1 5A0      -0.730900
     26 H1           2.2010    -1.9760    -3.6740 h2         1 5A0       0.068700
     27 H2           0.5790     0.5120    -4.3230 hc         1 5A0       0.081200
     28 H3           2.3060     0.5130    -3.9390 hc         1 5A0       0.081200
     29 H4           3.0060     0.0050    -1.5450 ha         1 5A0       0.156000
     30 H5          -0.5600    -0.0010     3.2340 h5         1 5A0       0.065100
     31 H6           3.6070    -1.1330    -0.4240 h1         1 5A0       0.064200
     32 H7           3.7370    -2.0580     1.0820 h1         1 5A0       0.064200
     33 H8           5.7950    -0.1240    -0.0460 h1         1 5A0       0.067950
     34 H9           5.9560    -1.8850     0.0910 h1         1 5A0       0.067950
     35 H10          3.6280    -0.9430     3.1910 h1         1 5A0       0.064200
     36 H11          3.4140     0.8160     3.2590 h1         1 5A0       0.064200
     37 H12          5.7630     0.0690     3.7840 h1         1 5A0       0.067950
     38 H13          5.6670     1.1680     2.3940 h1         1 5A0       0.067950
     39 H16         10.5320    -1.5440     3.2600 hc         1 5A0       0.046533
     40 H17         11.0700    -3.1550     3.7550 hc         1 5A0       0.046533
     41 H18         10.4910    -2.0050     4.9680 hc         1 5A0       0.046533
     42 H19          9.3930    -4.8350     4.5670 hc         1 5A0       0.046533
     43 H20          7.6710    -4.4310     4.5730 hc         1 5A0       0.046533
     44 H21          8.7560    -3.6940     5.7600 hc         1 5A0       0.046533
     45 H22          8.4240    -4.3770     2.3100 h1         1 5A0       0.067700
     46 H23          9.6080    -3.1860     1.7540 h1         1 5A0       0.067700
     47 CAL          1.3650     0.0020    -3.7790 c3         1 5A0      -0.060200
@<TRIPOS>BOND
     1    22    21 1
     2    20    21 1
     3    20    19 1
     4    47     9 1
     5    47     7 1
     6    21    23 1
     7    21    24 1
     8    10     9 1
     9    10     1 1
    10     9    11 2
    11    15    14 1
    12    15    18 1
    13     1     5 ar
    14     1     2 ar
    15    11     2 1
    16     8     7 1
    17     5    12 ar
    18     2     3 ar
    19     7     6 1
    20    19    18 1
    21    19    25 2
    22    14    13 1
    23    24    25 1
    24    12     4 ar
    25    18    17 1
    26     3     4 ar
    27     3    13 1
    28    13    16 1
    29    16    17 1
    30     7    26 1
    31    47    27 1
    32    47    28 1
    33    11    29 1
    34    12    30 1
    35    14    31 1
    36    14    32 1
    37    15    33 1
    38    15    34 1
    39    16    35 1
    40    16    36 1
    41    17    37 1
    42    17    38 1
    43    22    39 1
    44    22    40 1
    45    22    41 1
    46    23    42 1
    47    23    43 1
    48    23    44 1
    49    24    45 1
    50    24    46 1
@<TRIPOS>SUBSTRUCTURE
     1 5A0         1 TEMP              0 ****  ****    0 ROOT
