@<TRIPOS>MOLECULE
5A1
   47    50     1     0     0
SMALL
bcc


@<TRIPOS>ATOM
      1 C4           0.0000     0.0000     0.0000 ca         1 5A1       0.557600
      2 C5           1.3990     0.0000     0.0000 ca         1 5A1      -0.365400
      3 C6           2.0540     0.0000     1.2580 ca         1 5A1       0.583200
      4 N1           1.3220    -0.0000     2.3630 nb         1 5A1      -0.688000
      5 N3          -0.6510     0.0000     1.1700 nb         1 5A1      -0.610000
      6 FAC          2.4890    -2.1190    -3.5650 f          1 5A1      -0.187967
      7 CBB          1.4750    -1.4600    -4.2700 c3         1 5A1       0.547900
      8 FAD          1.7790    -1.4670    -5.6350 f          1 5A1      -0.187967
      9 FAE          0.2590    -2.1180    -4.0590 f          1 5A1      -0.187967
     10 FAF          2.5820     0.6420    -3.9880 f          1 5A1      -0.187300
     11 FAG          0.3520     0.6410    -4.4840 f          1 5A1      -0.187300
     12 CAU          1.0400    -0.0100    -2.3070 cc         1 5A1      -0.134600
     13 SAS         -0.5890    -0.0070    -1.6560 ss         1 5A1      -0.207900
     14 CAI          1.9420     0.0000    -1.3450 cd         1 5A1       0.007800
     15 C2           0.0020     0.0000     2.3080 ca         1 5A1       0.683900
     16 NAZ          3.4350    -0.0010     1.3310 nh         1 5A1      -0.448300
     17 CAM          3.8890    -0.0010     2.7280 c3         1 5A1       0.111800
     18 CAK          5.4100     0.1810     2.7670 c3         1 5A1       0.169300
     19 CAL          4.0000    -1.1340     0.5870 c3         1 5A1       0.111800
     20 CAJ          5.5260    -0.9990     0.5370 c3         1 5A1       0.169300
     21 NAY          6.0260    -0.8470     1.9130 nh         1 5A1      -0.407600
     22 CAT          7.0420    -1.6440     2.3880 c2         1 5A1       0.560100
     23 SAR          7.8560    -2.9070     1.4590 ss         1 5A1      -0.384300
     24 CBA          8.9880    -3.4120     2.7960 c3         1 5A1       0.033100
     25 CAA          8.7500    -4.8730     3.1830 c3         1 5A1       0.023900
     26 CAB         10.4450    -3.1950     2.3810 c3         1 5A1       0.023900
     27 CAN          8.6060    -2.4750     3.9530 c3         1 5A1       0.171800
     28 NAO          7.5400    -1.5760     3.5690 n2         1 5A1      -0.650900
     29 H2           3.0070     0.0080    -1.5440 ha         1 5A1       0.145000
     30 H3          -0.5600    -0.0000     3.2340 h5         1 5A1       0.005100
     31 H4           3.4150     0.8140     3.2610 h1         1 5A1       0.038700
     32 H5           3.6270    -0.9450     3.1920 h1         1 5A1       0.038700
     33 H6           5.6680     1.1650     2.3940 h1         1 5A1       0.041200
     34 H7           5.7640     0.0670     3.7850 h1         1 5A1       0.041200
     35 H8           3.6060    -1.1350    -0.4220 h1         1 5A1       0.038700
     36 H9           3.7370    -2.0600     1.0840 h1         1 5A1       0.038700
     37 H10          5.7950    -0.1260    -0.0450 h1         1 5A1       0.041200
     38 H11          5.9560    -1.8880     0.0910 h1         1 5A1       0.041200
     39 H12          7.7250    -4.9970     3.5100 hc         1 5A1       0.015700
     40 H13          9.4220    -5.1470     3.9870 hc         1 5A1       0.015700
     41 H14          8.9350    -5.5080     2.3250 hc         1 5A1       0.015700
     42 H15         11.0970    -3.4510     3.2070 hc         1 5A1       0.015700
     43 H16         10.5930    -2.1570     2.1120 hc         1 5A1       0.015700
     44 H17         10.6750    -3.8250     1.5300 hc         1 5A1       0.015700
     45 H18          8.2790    -3.0710     4.7970 h1         1 5A1       0.036200
     46 H19          9.4740    -1.8930     4.2390 h1         1 5A1       0.036200
     47 CBC          1.3660    -0.0160    -3.7770 c3         1 5A1       0.444800
@<TRIPOS>BOND
     1     1     2 ar  
     2     1     5 ar  
     3     1    13 1   
     4     2     3 ar  
     5     2    14 1   
     6     3     4 ar  
     7     3    16 1   
     8     4    15 ar  
     9     5    15 ar  
    10     6     7 1   
    11     7     8 1   
    12     7     9 1   
    13     7    47 1   
    14    10    47 1   
    15    11    47 1   
    16    12    13 1   
    17    12    14 2   
    18    12    47 1   
    19    14    29 1   
    20    15    30 1   
    21    16    17 1   
    22    16    19 1   
    23    17    18 1   
    24    17    31 1   
    25    17    32 1   
    26    18    21 1   
    27    18    33 1   
    28    18    34 1   
    29    19    20 1   
    30    19    35 1   
    31    19    36 1   
    32    20    21 1   
    33    20    37 1   
    34    20    38 1   
    35    21    22 1   
    36    22    23 1   
    37    22    28 2   
    38    23    24 1   
    39    24    25 1   
    40    24    26 1   
    41    24    27 1   
    42    25    39 1   
    43    25    40 1   
    44    25    41 1   
    45    26    42 1   
    46    26    43 1   
    47    26    44 1   
    48    27    28 1   
    49    27    45 1   
    50    27    46 1   
@<TRIPOS>SUBSTRUCTURE
     1 5A1         1 TEMP              0 ****  ****    0 ROOT
