@<TRIPOS>MOLECULE
molecule
   47    50     1     0     0
SMALL
bcc


@<TRIPOS>ATOM
      1 O1           0.0000     0.0000     0.0000 o          1 5A7      -0.892500
      2 O3           2.0160    -1.3130    -0.7600 o          1 5A7      -0.892500
      3 C11          6.8810     0.4990    -2.8380 ca         1 5A7      -0.122000
      4 C12          6.0600     0.1480    -3.8660 ca         1 5A7      -0.108000
      5 C13          5.1590     1.0610    -4.4070 ca         1 5A7      -0.124000
      6 C14          5.0730     2.3320    -3.9210 ca         1 5A7      -0.083000
      7 C15          4.9010     5.0320    -2.8990 cp         1 5A7      -0.079300
      8 C16          5.3810     6.1560    -3.5460 ca         1 5A7      -0.116000
      9 C17          4.5020     7.0960    -4.0880 ca         1 5A7      -0.002400
     10 C18          3.1370     6.9230    -3.9900 ca         1 5A7      -0.134000
     11 C19          3.5020     4.8330    -2.7850 ca         1 5A7       0.448600
     12 C20          2.6200     5.7930    -3.3380 ca         1 5A7      -0.189300
     13 C21          1.2280     5.5940    -3.2250 ca         1 5A7      -0.119000
     14 C22          0.7850     4.4770    -2.5810 ca         1 5A7      -0.236300
     15 C23          1.7120     3.5620    -2.0530 ca         1 5A7       0.549100
     16 C26          1.2200     2.3560    -1.3580 ce         1 5A7      -0.345800
     17 C27          2.0830     1.4830    -0.8530 c2         1 5A7      -0.077600
     18 C28          6.1610     8.1390    -5.4360 c          1 5A7       0.647100
     19 C29          6.7710     9.3790    -6.0380 c3         1 5A7      -0.174100
     20 P2           1.4800     0.0000     0.0000 p5         1 5A7       1.009100
     21 O4           2.0160     0.0000     1.5180 o          1 5A7      -0.892500
     22 C5           6.6820     4.3900    -1.2880 ca         1 5A7      -0.131000
     23 C6           7.5680     3.4620    -0.7530 ca         1 5A7      -0.133000
     24 C7           7.6490     2.1960    -1.2480 ca         1 5A7      -0.116000
     25 C8           5.8430     4.0410    -2.3330 cp         1 5A7       0.015000
     26 C9           5.9030     2.7280    -2.8640 ca         1 5A7      -0.001000
     27 C10          6.8170     1.7990    -2.3080 ca         1 5A7      -0.023000
     28 N24          3.0150     3.7580    -2.1660 nb         1 5A7      -0.701000
     29 O30          6.7040     7.0640    -5.5810 o          1 5A7      -0.590100
     30 H2           7.5780    -0.2220    -2.4270 ha         1 5A7       0.120000
     31 H3           6.1100    -0.8560    -4.2700 ha         1 5A7       0.118000
     32 H4           4.5170     0.7570    -5.2240 ha         1 5A7       0.121000
     33 H5           4.3670     3.0320    -4.3520 ha         1 5A7       0.139000
     34 H6           6.4500     6.3100    -3.6330 ha         1 5A7       0.149000
     35 H7           2.4660     7.6590    -4.4140 ha         1 5A7       0.108000
     36 H8           0.5290     6.3110    -3.6380 ha         1 5A7       0.109000
     37 H9          -0.2740     4.2500    -2.5550 ha         1 5A7       0.138000
     38 H10          0.1550     2.1840    -1.2600 ha         1 5A7       0.160000
     39 H11          3.1480     1.6550    -0.9520 ha         1 5A7       0.115000
     40 H12          7.7770     9.1590    -6.3760 hc         1 5A7       0.052367
     41 H13          6.8050    10.1630    -5.2910 hc         1 5A7       0.052367
     42 H14          6.1710     9.7050    -6.8780 hc         1 5A7       0.052367
     43 H16          6.6380     5.3900    -0.8750 ha         1 5A7       0.118000
     44 H17          8.2160     3.7550     0.0650 ha         1 5A7       0.108000
     45 H18          8.3470     1.4890    -0.8150 ha         1 5A7       0.118000
     46 H19          4.5260     9.0980    -4.6790 hn         1 5A7       0.308500
     47 N25          5.0120     8.2240    -4.7390 ns         1 5A7      -0.471100
@<TRIPOS>BOND
     1     1    20 1
     2    21    20 1
     3    20     2 1
     4    20    17 1
     5    17    16 2
     6    16    15 1
     7    15    14 ar
     8    15    28 ar
     9    23    24 ar
    10    23    22 ar
    11    24    27 ar
    12    14    13 ar
    13    28    11 ar
    14    22    25 ar
    15    27     3 ar
    16    27    26 ar
    17     3     4 ar
    18    25    26 ar
    19    25     7 1
    20    13    12 ar
    21    11    12 ar
    22    11     7 ar
    23    26     6 ar
    24     4     5 ar
    25    12    10 ar
    26     7     8 ar
    27     6     5 ar
    28    10     9 ar
    29     8     9 ar
    30     9    47 1
    31    47    18 1
    32    29    18 2
    33    18    19 1
    34     3    30 1
    35     4    31 1
    36     5    32 1
    37     6    33 1
    38     8    34 1
    39    10    35 1
    40    13    36 1
    41    14    37 1
    42    16    38 1
    43    17    39 1
    44    19    40 1
    45    19    41 1
    46    19    42 1
    47    22    43 1
    48    23    44 1
    49    24    45 1
    50    47    46 1
@<TRIPOS>SUBSTRUCTURE
     1 5A7         1 TEMP              0 ****  ****    0 ROOT
