@<TRIPOS>MOLECULE
5AC
   16    16     1     0     0
SMALL
bcc


@<TRIPOS>ATOM
      1 NAA          0.0000     0.0000     0.0000 nz         1 5AC       0.219600
      2 CAG          1.3470     0.0000     0.0000 c          1 5AC       0.300600
      3 OAC          1.9560     0.0000     1.0550 o          1 5AC      -0.489100
      4 CAI          2.0790     0.0010    -1.2690 cc         1 5AC       0.070800
      5 CAH          3.4580     0.0020    -1.4240 cd         1 5AC      -0.129000
      6 NAB          4.4030     0.0020    -0.4170 nv         1 5AC      -0.404200
      7 NAF          3.6950     0.0010    -2.7660 na         1 5AC       0.224100
      8 CAD          2.4860     0.0000    -3.3990 cd         1 5AC       0.293400
      9 NAE          1.5330    -0.0050    -2.5160 nc         1 5AC      -0.610000
     10 HNAA        -0.3340     0.0030     0.9440 hn         1 5AC       0.244133
     11 HNAB        -0.3340    -0.8190    -0.4690 hn         1 5AC       0.244133
     12 HNAC         4.3550    -0.6790     0.3140 hn         1 5AC       0.295800
     13 HNAD         5.1430     0.6750    -0.4260 hn         1 5AC       0.295800
     14 HNAF         4.5890    -0.0880    -3.2060 hn         1 5AC       0.154700
     15 HAD          2.3430     0.0030    -4.4730 h5         1 5AC       0.047100
     16 HAA3        -0.3340     0.8160    -0.4750 hn         1 5AC       0.244133
@<TRIPOS>BOND
     1     1     2 1   
     2     1    10 1   
     3     1    11 1   
     4     1    16 1   
     5     2     3 2   
     6     2     4 1   
     7     4     5 2   
     8     4     9 1   
     9     5     6 1   
    10     5     7 1   
    11     6    12 1   
    12     6    13 1   
    13     7     8 1   
    14     7    14 1   
    15     8     9 2   
    16     8    15 1   
@<TRIPOS>SUBSTRUCTURE
     1 5AC         1 TEMP              0 ****  ****    0 ROOT
