@<TRIPOS>MOLECULE
molecule
   16    16     1     0     0
SMALL
bcc


@<TRIPOS>ATOM
      1 NAA          0.0000     0.0000     0.0000 nz         1 5AC      -0.666400
      2 CAG          1.3470     0.0000     0.0000 c          1 5AC       0.453600
      3 OAC          1.9560     0.0000     1.0550 o          1 5AC      -0.461100
      4 CAI          2.0790     0.0010    -1.2690 cc         1 5AC       0.118800
      5 CAH          3.4580     0.0020    -1.4240 cd         1 5AC       0.200000
      6 NAB          4.4030     0.0020    -0.4170 nv         1 5AC      -0.905200
      7 NAF          3.6950     0.0010    -2.7660 na         1 5AC      -0.316900
      8 CAD          2.4860     0.0000    -3.3990 cd         1 5AC       0.467400
      9 NAE          1.5330    -0.0050    -2.5160 nc         1 5AC      -0.701000
     10 HNAA        -0.3340     0.0030     0.9440 hn         1 5AC       0.479467
     11 HNAB        -0.3340    -0.8190    -0.4690 hn         1 5AC       0.479467
     12 HNAC         4.3550    -0.6790     0.3140 hn         1 5AC       0.469300
     13 HNAD         5.1430     0.6750    -0.4260 hn         1 5AC       0.469300
     14 HNAF         4.5890    -0.0880    -3.2060 hn         1 5AC       0.335700
     15 HAD          2.3430     0.0030    -4.4730 h5         1 5AC       0.099100
     16 HAA3        -0.3340     0.8160    -0.4750 hn         1 5AC       0.479467
@<TRIPOS>BOND
     1     1     2 1   
     2     2     3 2   
     3     2     4 1   
     4     4     5 2   
     5     4     9 1   
     6     5     6 1   
     7     5     7 1   
     8     7     8 1   
     9     8     9 2   
    10     1    10 1   
    11     1    11 1   
    12     6    12 1   
    13     6    13 1   
    14     7    14 1   
    15     8    15 1   
    16    16     1 1   
@<TRIPOS>SUBSTRUCTURE
     1 5AC         1 TEMP              0 ****  ****    0 ROOT
