@<TRIPOS>MOLECULE
5AD
   31    33     1     0     0
SMALL
bcc


@<TRIPOS>ATOM
      1 N1           0.0000     0.0000     0.0000 nb         1 5AD      -0.745000
      2 C2           1.3200     0.0000     0.0000 ca         1 5AD       0.693900
      3 N3           2.0270     0.0000     1.1110 nb         1 5AD      -0.685000
      4 C4           1.4260     0.0060     2.2960 ca         1 5AD       0.271800
      5 N9           1.8540     0.0010     3.5990 na         1 5AD       0.200000
      6 C8           0.7470    -0.0000     4.3930 cc         1 5AD       0.250700
      7 N7          -0.3270     0.0000     3.6570 nd         1 5AD      -0.498100
      8 C5           0.0230     0.0000     2.3490 ca         1 5AD      -0.244200
      9 C6          -0.6870    -0.0010     1.1360 ca         1 5AD       0.592200
     10 N6          -2.0710    -0.0000     1.1260 nv         1 5AD      -0.480500
     11 C1'          3.2460     0.0000     4.0540 c3         1 5AD       0.144800
     12 C2'          3.7420     1.4480     4.2330 c3         1 5AD       0.119100
     13 C3'          4.1720     1.5230     5.7200 c3         1 5AD       0.134100
     14 C4'          4.3860     0.0290     6.0680 c3         1 5AD       0.171100
     15 C5'          4.2220    -0.2020     7.5730 c3         1 5AD       0.003900
     16 O4'          3.3430    -0.6450     5.3340 os         1 5AD      -0.398600
     17 O2'          4.8570     1.7050     3.3770 oh         1 5AD      -0.545800
     18 O3'          5.3860     2.2650     5.8620 oh         1 5AD      -0.549800
     19 H2           1.8410     0.0010    -0.9500 h5         1 5AD      -0.004900
     20 H8           0.7580    -0.0020     5.4760 h5         1 5AD       0.038800
     21 HN61        -2.5780     0.0020     1.9890 hn         1 5AD       0.276800
     22 HN62        -2.5650    -0.0020     0.2550 hn         1 5AD       0.276800
     23 H1'          3.8730    -0.5150     3.3360 h2         1 5AD       0.072700
     24 H2'          2.9380     2.1480     4.0390 h1         1 5AD       0.018700
     25 H3'          3.3810     1.9470     6.3260 h1         1 5AD       0.018700
     26 H4'          5.3610    -0.3030     5.7300 h1         1 5AD       0.045700
     27 H5'1         5.0220     0.2990     8.1040 hc         1 5AD       0.013033
     28 H5'2         4.2590    -1.2640     7.7810 hc         1 5AD       0.013033
     29 H5'3         3.2680     0.1970     7.8970 hc         1 5AD       0.013033
     30 HO2'         4.6990     2.4920     2.8820 ho         1 5AD       0.396000
     31 HO3'         5.2040     3.0860     6.2880 ho         1 5AD       0.387000
@<TRIPOS>BOND
     1     1     2 ar  
     2     1     9 ar  
     3     2     3 ar  
     4     2    19 1   
     5     3     4 ar  
     6     4     5 1   
     7     4     8 ar  
     8     5     6 1   
     9     5    11 1   
    10     6     7 2   
    11     6    20 1   
    12     7     8 1   
    13     8     9 ar  
    14     9    10 1   
    15    10    21 1   
    16    10    22 1   
    17    11    12 1   
    18    11    16 1   
    19    11    23 1   
    20    12    13 1   
    21    12    17 1   
    22    12    24 1   
    23    13    14 1   
    24    13    18 1   
    25    13    25 1   
    26    14    15 1   
    27    14    16 1   
    28    14    26 1   
    29    15    27 1   
    30    15    28 1   
    31    15    29 1   
    32    17    30 1   
    33    18    31 1   
@<TRIPOS>SUBSTRUCTURE
     1 5AD         1 TEMP              0 ****  ****    0 ROOT
