@<TRIPOS>MOLECULE
molecule
   30    31     1     0     0
SMALL
bcc


@<TRIPOS>ATOM
      1 O2           0.0000     0.0000     0.0000 o          1 5AE      -0.501500
      2 C2           1.2190     0.0000     0.0000 c          1 5AE       0.828900
      3 N3           1.8920     0.0000     1.1550 nc         1 5AE      -0.668100
      4 C4           3.2170     0.0000     1.1490 cd         1 5AE       0.746200
      5 N4           3.9040     0.0000     2.3380 nz         1 5AE      -0.728600
      6 N5           3.8920     0.0020    -0.0090 nd         1 5AE      -0.828000
      7 N1           1.8980    -0.0030    -1.1660 n          1 5AE      -0.349300
      8 C6           3.2490     0.0030    -1.1510 cc         1 5AE       0.624800
      9 C1'          1.1750    -0.0090    -2.4400 c3         1 5AE       0.271500
     10 O4'          1.6960    -1.0330    -3.3160 os         1 5AE      -0.405600
     11 C4'          1.3280    -0.6660    -4.6550 c3         1 5AE       0.120100
     12 C5'          2.4250    -1.0960    -5.6320 c3         1 5AE       0.143400
     13 O5'          2.4940    -2.5230    -5.6730 oh         1 5AE      -0.591800
     14 C3'          1.1740     0.8670    -4.6840 c3         1 5AE       0.102100
     15 O3'         -0.1520     1.2280    -5.0820 oh         1 5AE      -0.558800
     16 C2'          1.4370     1.3030    -3.2220 c3         1 5AE       0.095100
     17 O2'          0.5250     2.3260    -2.8220 oh         1 5AE      -0.548800
     18 H1           4.8590     0.2490     2.1720 hn         1 5AE       0.485800
     19 H2           3.8630    -0.9130     2.7470 hn         1 5AE       0.485800
     20 H3           3.8010     0.0020    -2.0830 h5         1 5AE       0.109800
     21 H4           0.1130    -0.1500    -2.2820 h2         1 5AE       0.155700
     22 H5           0.3880    -1.1340    -4.9190 h1         1 5AE       0.107700
     23 H6           3.3770    -0.6980    -5.3040 h1         1 5AE       0.033200
     24 H7           2.1960    -0.7170    -6.6210 h1         1 5AE       0.033200
     25 H8           3.0120    -2.7910    -6.4140 ho         1 5AE       0.417000
     26 H9           1.9090     1.3070    -5.3470 h1         1 5AE       0.059700
     27 H10         -0.1200     1.6710    -5.9140 ho         1 5AE       0.420000
     28 H11          2.4650     1.6230    -3.0980 h1         1 5AE       0.040700
     29 H12          0.9970     3.1290    -2.6760 ho         1 5AE       0.414000
     30 H43          3.4960     0.6710     2.9590 hn         1 5AE       0.485800
@<TRIPOS>BOND
     1     5     4 1   
     2     3     4 2   
     3     3     2 1   
     4     1     2 2   
     5     4     6 1   
     6     2     7 1   
     7     6     8 2   
     8     7     8 1   
     9     7     9 1   
    10    10     9 1   
    11    10    11 1   
    12     9    16 1   
    13    11    12 1   
    14    11    14 1   
    15    12    13 1   
    16    16    17 1   
    17    16    14 1   
    18    14    15 1   
    19     5    18 1   
    20     5    19 1   
    21     8    20 1   
    22     9    21 1   
    23    11    22 1   
    24    12    23 1   
    25    12    24 1   
    26    13    25 1   
    27    14    26 1   
    28    15    27 1   
    29    16    28 1   
    30    17    29 1   
    31    30     5 1   
@<TRIPOS>SUBSTRUCTURE
     1 5AE         1 TEMP              0 ****  ****    0 ROOT
