@<TRIPOS>MOLECULE
5AE
   30    31     1     0     0
SMALL
bcc


@<TRIPOS>ATOM
      1 O2           0.0000     0.0000     0.0000 o          1 5AE      -0.542500
      2 C2           1.2190     0.0000     0.0000 c          1 5AE       0.683900
      3 N3           1.8920     0.0000     1.1550 nc         1 5AE      -0.531100
      4 C4           3.2170     0.0000     1.1490 cd         1 5AE       0.420200
      5 N4           3.9040     0.0000     2.3380 nz         1 5AE       0.205400
      6 N5           3.8920     0.0020    -0.0090 nd         1 5AE      -0.712000
      7 N1           1.8980    -0.0030    -1.1660 n          1 5AE       0.091700
      8 C6           3.2490     0.0030    -1.1510 cc         1 5AE       0.461800
      9 C1'          1.1750    -0.0090    -2.4400 c3         1 5AE       0.173500
     10 O4'          1.6960    -1.0330    -3.3160 os         1 5AE      -0.390600
     11 C4'          1.3280    -0.6660    -4.6550 c3         1 5AE       0.151100
     12 C5'          2.4250    -1.0960    -5.6320 c3         1 5AE       0.222400
     13 O5'          2.4940    -2.5230    -5.6730 oh         1 5AE      -0.578800
     14 C3'          1.1740     0.8670    -4.6840 c3         1 5AE       0.144100
     15 O3'         -0.1520     1.2280    -5.0820 oh         1 5AE      -0.541800
     16 C2'          1.4370     1.3030    -3.2220 c3         1 5AE       0.132100
     17 O2'          0.5250     2.3260    -2.8220 oh         1 5AE      -0.529800
     18 H1           4.8590     0.2490     2.1720 hn         1 5AE       0.227467
     19 H2           3.8630    -0.9130     2.7470 hn         1 5AE       0.227467
     20 H3           3.8010     0.0020    -2.0830 h5         1 5AE       0.050800
     21 H4           0.1130    -0.1500    -2.2820 h2         1 5AE       0.114700
     22 H5           0.3880    -1.1340    -4.9190 h1         1 5AE       0.068700
     23 H6           3.3770    -0.6980    -5.3040 h1         1 5AE      -0.005300
     24 H7           2.1960    -0.7170    -6.6210 h1         1 5AE      -0.005300
     25 H8           3.0120    -2.7910    -6.4140 ho         1 5AE       0.404000
     26 H9           1.9090     1.3070    -5.3470 h1         1 5AE       0.022700
     27 H10         -0.1200     1.6710    -5.9140 ho         1 5AE       0.404000
     28 H11          2.4650     1.6230    -3.0980 h1         1 5AE       0.007700
     29 H12          0.9970     3.1290    -2.6760 ho         1 5AE       0.396000
     30 H43          3.4960     0.6710     2.9590 hn         1 5AE       0.227467
@<TRIPOS>BOND
     1     1     2 2   
     2     2     3 1   
     3     2     7 1   
     4     3     4 2   
     5     4     5 1   
     6     4     6 1   
     7     5    18 1   
     8     5    19 1   
     9     5    30 1   
    10     6     8 2   
    11     7     8 1   
    12     7     9 1   
    13     8    20 1   
    14     9    10 1   
    15     9    16 1   
    16     9    21 1   
    17    10    11 1   
    18    11    12 1   
    19    11    14 1   
    20    11    22 1   
    21    12    13 1   
    22    12    23 1   
    23    12    24 1   
    24    13    25 1   
    25    14    15 1   
    26    14    16 1   
    27    14    26 1   
    28    15    27 1   
    29    16    17 1   
    30    16    28 1   
    31    17    29 1   
@<TRIPOS>SUBSTRUCTURE
     1 5AE         1 TEMP              0 ****  ****    0 ROOT
