@<TRIPOS>MOLECULE
5AF
   77    79     1     0     0
SMALL
bcc


@<TRIPOS>ATOM
      1 C1         -1.2710   -0.8930    1.3080 c3        1 5AF     -0.128600
      2 C5         -0.3340   -0.0280    0.5120 c3        1 5AF     -0.126400
      3 C8          1.0270    0.1810    1.1750 c3        1 5AF      0.126500
      4 C9          1.9870    0.8770    0.2020 c3        1 5AF     -0.126400
      5 C10         3.3890    0.9980    0.7340 c3        1 5AF     -0.128600
      6 N17         0.8910    0.9920    2.4640 n4        1 5AF     -0.806000
      7 C19         1.3390    0.2750    3.7200 c3        1 5AF      0.411000
      8 N20         0.4590   -0.9070    4.0960 n4        1 5AF     -0.869600
      9 C23         1.4320    1.2250    4.8800 ca        1 5AF     -0.272300
     10 C28         0.3160    1.9250    5.3660 ca        1 5AF     -0.080500
     11 C30         0.4510    2.8040    6.4360 ca        1 5AF     -0.097500
     12 C24         2.6840    1.4090    5.4860 ca        1 5AF     -0.080500
     13 C26         2.8170    2.2890    6.5540 ca        1 5AF     -0.097500
     14 C32         1.7060    3.0060    7.0410 ca        1 5AF     -0.025500
     15 C33         1.9110    3.9330    8.1250 cc        1 5AF      0.276200
     16 O38         0.8030    4.5230    8.7600 os        1 5AF     -0.349800
     17 C34         3.0930    4.3990    8.6960 cd        1 5AF     -0.173300
     18 C36         2.7220    5.3240    9.7280 cd        1 5AF     -0.173300
     19 C39         1.3310    5.3770    9.7460 cc        1 5AF      0.276200
     20 C40         0.4410    6.1270   10.5950 ca        1 5AF     -0.025500
     21 C45         0.9920    7.1110   11.4400 ca        1 5AF     -0.097500
     22 C47         0.1850    7.8400   12.3060 ca        1 5AF     -0.080500
     23 C41        -0.9490    5.9040   10.6320 ca        1 5AF     -0.097500
     24 C43        -1.7580    6.6300   11.4990 ca        1 5AF     -0.080500
     25 C49        -1.1970    7.6010   12.3450 ca        1 5AF     -0.272300
     26 C50        -2.0270    8.4020   13.3070 c3        1 5AF      0.411000
     27 N51        -2.9930    9.2870   12.5350 n4        1 5AF     -0.869600
     28 N54        -2.7030    7.5030   14.3210 n4        1 5AF     -0.806000
     29 C56        -3.3460    8.2330   15.5020 c3        1 5AF      0.126500
     30 C65        -4.8530    7.9810   15.5480 c3        1 5AF     -0.126400
     31 C68        -5.6040    8.5760   14.3900 c3        1 5AF     -0.128600
     32 C58        -2.6960    7.7960   16.8200 c3        1 5AF     -0.126400
     33 C61        -1.2330    8.1340   16.9050 c3        1 5AF     -0.128600
     34 H2         -0.8240   -1.8960    1.5220 hc        1 5AF      0.059533
     35 H4         -1.5850   -0.4070    2.2640 hc        1 5AF      0.059533
     36 H3         -2.2050   -1.0750    0.7070 hc        1 5AF      0.059533
     37 H6         -0.1360   -0.5270   -0.4830 hc        1 5AF      0.116450
     38 H7         -0.8150    0.9600    0.2720 hc        1 5AF      0.116450
     39 H16         1.4720   -0.8190    1.4580 hx        1 5AF      0.089700
     40 H15         2.0030    0.2460   -0.7350 hc        1 5AF      0.116450
     41 H14         1.5850    1.8820   -0.0970 hc        1 5AF      0.116450
     42 H11         3.7740    0.0150    1.0990 hc        1 5AF      0.059533
     43 H13         4.0680    1.3390   -0.0930 hc        1 5AF      0.059533
     44 H12         3.4690    1.7510    1.5550 hc        1 5AF      0.059533
     45 H18         1.5060    1.8250    2.3890 hn        1 5AF      0.479800
     46 H19         2.3710   -0.1630    3.4770 hx        1 5AF      0.169700
     47 H21         0.2650   -1.5240    3.2920 hn        1 5AF      0.488133
     48 H22        -0.4330   -0.5860    4.4960 hn        1 5AF      0.488133
     49 H29        -0.6780    1.7970    4.9080 ha        1 5AF      0.151500
     50 H31        -0.4280    3.3550    6.8130 ha        1 5AF      0.184000
     51 H25         3.5760    0.8650    5.1270 ha        1 5AF      0.151500
     52 H27         3.8110    2.4220    7.0210 ha        1 5AF      0.184000
     53 H35         4.1170    4.1360    8.4260 ha        1 5AF      0.198000
     54 H37         3.4220    5.8640   10.3680 ha        1 5AF      0.198000
     55 H46         2.0790    7.3130   11.4200 ha        1 5AF      0.184000
     56 H48         0.6500    8.6010   12.9560 ha        1 5AF      0.151500
     57 H42        -1.3930    5.1400    9.9700 ha        1 5AF      0.184000
     58 H44        -2.8410    6.4250   11.5110 ha        1 5AF      0.151500
     59 H50        -1.3630    9.1130   13.9150 hx        1 5AF      0.169700
     60 H52        -3.6680    9.7640   13.1520 hn        1 5AF      0.488133
     61 H53        -3.5080    8.7400   11.8320 hn        1 5AF      0.488133
     62 H55        -1.9520    6.8900   14.6890 hn        1 5AF      0.479800
     63 H57        -3.1470    9.3370   15.3570 hx        1 5AF      0.089700
     64 H67        -5.0690    6.8810   15.6380 hc        1 5AF      0.116450
     65 H66        -5.2290    8.4510   16.5050 hc        1 5AF      0.116450
     66 H70        -5.3470    8.0810   13.4220 hc        1 5AF      0.059533
     67 H69        -5.4320    9.6780   14.3100 hc        1 5AF      0.059533
     68 H71        -6.7070    8.4300   14.5530 hc        1 5AF      0.059533
     69 H59        -2.8630    6.6990   16.9970 hc        1 5AF      0.116450
     70 H60        -3.2470    8.3400   17.6430 hc        1 5AF      0.116450
     71 H64        -0.6090    7.4950   16.2340 hc        1 5AF      0.059533
     72 H62        -0.8750    7.9600   17.9550 hc        1 5AF      0.059533
     73 H63        -1.0470    9.2090   16.6620 hc        1 5AF      0.059533
     74 H172       -0.0750    1.3300    2.5590 hn        1 5AF      0.479800
     75 H203        0.9610   -1.4450    4.8220 hn        1 5AF      0.488133
     76 H513       -2.4290    9.9970   12.0380 hn        1 5AF      0.488133
     77 H542       -3.4010    6.8980   13.8690 hn        1 5AF      0.479800
@<TRIPOS>BOND
     1    1    2 1   
     2    1   34 1   
     3    1   35 1   
     4    1   36 1   
     5    2    3 1   
     6    2   37 1   
     7    2   38 1   
     8    3    4 1   
     9    3    6 1   
    10    3   39 1   
    11    4    5 1   
    12    4   40 1   
    13    4   41 1   
    14    5   42 1   
    15    5   43 1   
    16    5   44 1   
    17    6    7 1   
    18    6   45 1   
    19    6   74 1   
    20    7    8 1   
    21    7    9 1   
    22    7   46 1   
    23    8   47 1   
    24    8   48 1   
    25    8   75 1   
    26    9   10 ar  
    27    9   12 ar  
    28   10   11 ar  
    29   10   49 1   
    30   11   14 ar  
    31   11   50 1   
    32   12   13 ar  
    33   12   51 1   
    34   13   14 ar  
    35   13   52 1   
    36   14   15 1   
    37   15   16 1   
    38   15   17 2   
    39   16   19 1   
    40   17   18 1   
    41   17   53 1   
    42   18   19 2   
    43   18   54 1   
    44   19   20 1   
    45   20   21 ar  
    46   20   23 ar  
    47   21   22 ar  
    48   21   55 1   
    49   22   25 ar  
    50   22   56 1   
    51   23   24 ar  
    52   23   57 1   
    53   24   25 ar  
    54   24   58 1   
    55   25   26 1   
    56   26   27 1   
    57   26   28 1   
    58   26   59 1   
    59   27   60 1   
    60   27   61 1   
    61   27   76 1   
    62   28   29 1   
    63   28   62 1   
    64   28   77 1   
    65   29   30 1   
    66   29   32 1   
    67   29   63 1   
    68   30   31 1   
    69   30   64 1   
    70   30   65 1   
    71   31   66 1   
    72   31   67 1   
    73   31   68 1   
    74   32   33 1   
    75   32   69 1   
    76   32   70 1   
    77   33   71 1   
    78   33   72 1   
    79   33   73 1   
@<TRIPOS>SUBSTRUCTURE
     1 5AF         1 TEMP              0 ****  ****    0 ROOT
