@<TRIPOS>MOLECULE
molecule
   56    59     1     0     0
SMALL
bcc


@<TRIPOS>ATOM
      1 C4           0.0000     0.0000     0.0000 ca         1 5AK       0.491800
      2 C5           1.4050     0.0000     0.0000 ca         1 5AK      -0.204200
      3 C6           2.0670     0.0000     1.2390 ca         1 5AK       0.783200
      4 C8           0.7580     0.0020    -2.0780 cc         1 5AK       0.421700
      5 N1           1.3360    -0.0010     2.3490 nb         1 5AK      -0.833000
      6 N3          -0.6470    -0.0010     1.1610 nb         1 5AK      -0.783000
      7 CAK          6.3860     1.1890    -9.8350 ca         1 5AK      -0.097000
      8 CAW          6.6510     1.1930   -11.1920 ca         1 5AK      -0.015900
      9 Br           6.8510     2.8320   -12.1140 br         1 5AK      -0.092100
     10 CAI          6.7710    -0.0040   -11.8760 ca         1 5AK      -0.101000
     11 CAG          6.6250    -1.2030   -11.2030 ca         1 5AK      -0.123000
     12 CAJ          6.3590    -1.2050    -9.8460 ca         1 5AK      -0.110000
     13 CAY          6.2450    -0.0090    -9.1610 ca         1 5AK      -0.085300
     14 CAN          5.9560    -0.0120    -7.6820 c3         1 5AK      -0.053100
     15 CAM          4.4420    -0.0040    -7.4590 c3         1 5AK       0.116000
     16 NAS          4.1620    -0.0070    -6.0210 ns         1 5AK      -0.585900
     17 CAV          2.8870     0.0000    -5.5830 c          1 5AK       0.673100
     18 OAB          1.9730     0.0090    -6.3800 o          1 5AK      -0.597100
     19 CAO          2.5980    -0.0030    -4.1050 c3         1 5AK      -0.108300
     20 SAU          0.8070     0.0080    -3.8400 ss         1 5AK      -0.060300
     21 N7           1.8090     0.0010    -1.2950 nd         1 5AK      -0.612100
     22 N6           3.4510    -0.0010     1.3020 nv         1 5AK      -0.987500
     23 C2           0.0170    -0.0010     2.2980 ca         1 5AK       0.739900
     24 N9          -0.3830     0.0060    -1.3220 na         1 5AK      -0.229000
     25 C1'         -1.7580     0.0150    -1.8270 c3         1 5AK       0.249800
     26 O4'         -1.8770    -0.8320    -2.9900 os         1 5AK      -0.387600
     27 C4'         -3.0450    -0.3980    -3.7070 c3         1 5AK       0.119100
     28 C5'         -2.8230    -0.5650    -5.2120 c3         1 5AK       0.140400
     29 O5'         -2.7240    -1.9560    -5.5270 oh         1 5AK      -0.589800
     30 C3'         -3.2610     1.0900    -3.3720 c3         1 5AK       0.093100
     31 O3'         -4.5440     1.2870    -2.7720 oh         1 5AK      -0.569800
     32 C2'         -2.1340     1.4190    -2.3620 c3         1 5AK       0.094100
     33 O2'         -2.6210     2.2530    -1.3090 oh         1 5AK      -0.560800
     34 H2           6.9790    -0.0020   -12.9390 ha         1 5AK       0.145000
     35 H3           6.7170    -2.1400   -11.7380 ha         1 5AK       0.139000
     36 H4           6.2470    -2.1440    -9.3180 ha         1 5AK       0.136000
     37 H5           6.3930     0.8690    -7.2270 hc         1 5AK       0.054700
     38 H6           6.3820    -0.9000    -7.2330 hc         1 5AK       0.054700
     39 H7           4.0150     0.8850    -7.9080 h1         1 5AK       0.060700
     40 H8           4.0050    -0.8840    -7.9140 h1         1 5AK       0.060700
     41 H9           4.9170     0.0150    -5.3640 hn         1 5AK       0.315500
     42 H10          3.0350     0.8780    -3.6500 h1         1 5AK       0.093700
     43 H11          3.0240    -0.8910    -3.6550 h1         1 5AK       0.093700
     44 H12          3.9110     0.0010     2.1900 hn         1 5AK       0.447800
     45 H13          3.9900    -0.0040     0.4590 hn         1 5AK       0.447800
     46 H14         -0.5410    -0.0020     3.2270 h5         1 5AK       0.063100
     47 H15         -2.4550    -0.2970    -1.0580 h2         1 5AK       0.121700
     48 H16         -3.9060    -0.9740    -3.3900 h1         1 5AK       0.085700
     49 H17         -1.9070    -0.0640    -5.4990 h1         1 5AK       0.035700
     50 H18         -3.6570    -0.1320    -5.7510 h1         1 5AK       0.035700
     51 H19         -3.0180    -2.1000    -6.4110 ho         1 5AK       0.402000
     52 H20         -3.1570     1.6960    -4.2640 h1         1 5AK       0.048700
     53 H21         -5.0840     1.8030    -3.3460 ho         1 5AK       0.404000
     54 H22         -1.2910     1.8760    -2.8660 h1         1 5AK       0.065700
     55 H23         -2.2430     3.1130    -1.3880 ho         1 5AK       0.405000
     56 H1           6.2960     2.1260    -9.2980 ha         1 5AK       0.145000
@<TRIPOS>BOND
     1    14    15 1   
     2    14    13 1   
     3    15    16 1   
     4    13     7 ar  
     5    13    12 ar  
     6     7     8 ar  
     7    16    17 1   
     8    22     3 1   
     9    12    11 ar  
    10    18    17 2   
    11    17    19 1   
    12     8     9 1   
    13     8    10 ar  
    14     3     5 ar  
    15     3     2 ar  
    16    11    10 ar  
    17     5    23 ar  
    18    21     2 1   
    19    21     4 2   
    20    19    20 1   
    21     2     1 ar  
    22     4    20 1   
    23     4    24 1   
    24    23     6 ar  
    25     1     6 ar  
    26     1    24 1   
    27    24    25 1   
    28    26    25 1   
    29    26    27 1   
    30    25    32 1   
    31    32    30 1   
    32    32    33 1   
    33    28    27 1   
    34    28    29 1   
    35    27    30 1   
    36    30    31 1   
    37     7    56 1   
    38    10    34 1   
    39    11    35 1   
    40    12    36 1   
    41    14    37 1   
    42    14    38 1   
    43    15    39 1   
    44    15    40 1   
    45    16    41 1   
    46    19    42 1   
    47    19    43 1   
    48    22    44 1   
    49    22    45 1   
    50    23    46 1   
    51    25    47 1   
    52    27    48 1   
    53    28    49 1   
    54    28    50 1   
    55    29    51 1   
    56    30    52 1   
    57    31    53 1   
    58    32    54 1   
    59    33    55 1   
@<TRIPOS>SUBSTRUCTURE
     1 5AK         1 TEMP              0 ****  ****    0 ROOT
