@<TRIPOS>MOLECULE
molecule
   47    49     1     0     0
SMALL
bcc


@<TRIPOS>ATOM
      1 C            0.0000     0.0000     0.0000 c          1 5AL       0.680100
      2 N            1.9980     1.1990    -0.6920 nz         1 5AL      -0.801600
      3 O           -0.6040     1.0300    -0.1830 o          1 5AL      -0.482000
      4 P           -2.2780    -1.0590     0.1990 p5         1 5AL       1.296800
      5 N1          -6.3220    -8.8100     6.1570 nb         1 5AL      -0.778000
      6 C2          -6.3880    -9.0850     4.8680 ca         1 5AL       0.693900
      7 N3          -6.0480    -8.2160     3.9410 nb         1 5AL      -0.738000
      8 C4          -5.6160    -7.0040     4.2750 ca         1 5AL       0.446800
      9 C5          -5.5280    -6.6610     5.6350 ca         1 5AL      -0.155200
     10 C6          -5.9030    -7.6240     6.5870 ca         1 5AL       0.767200
     11 N6          -5.8380    -7.3440     7.9410 nv         1 5AL      -1.072500
     12 N7          -5.0670    -5.3880     5.6980 nc         1 5AL      -0.589100
     13 C8          -4.8720    -4.9400     4.4920 cd         1 5AL       0.451700
     14 N9          -5.1960    -5.8980     3.5790 na         1 5AL      -0.254000
     15 CA           1.5070     0.0000     0.0000 c3         1 5AL       0.029500
     16 CB           2.0160     0.0000     1.4430 c3         1 5AL      -0.109100
     17 C1'         -5.1110    -5.7720     2.1220 c3         1 5AL       0.257800
     18 O1A         -2.7760    -0.1580     1.4360 o          1 5AL      -0.764000
     19 C2'         -6.4650    -5.2970     1.5350 c3         1 5AL       0.091100
     20 O2'         -7.3310    -6.4060     1.2910 oh         1 5AL      -0.562800
     21 O2A         -2.7330    -0.4490    -1.0710 o          1 5AL      -0.764000
     22 C3'         -6.0280    -4.6330     0.2080 c3         1 5AL       0.084100
     23 O3'         -6.1960    -5.5400    -0.8850 oh         1 5AL      -0.576800
     24 O3A         -0.6710    -1.1440     0.2070 os         1 5AL      -0.495500
     25 C4'         -4.5350    -4.3140     0.4180 c3         1 5AL       0.118100
     26 O4'         -4.1940    -4.7190     1.7560 os         1 5AL      -0.398600
     27 C5'         -4.2950    -2.8120     0.2500 c3         1 5AL       0.230400
     28 O5'         -2.8940    -2.5410     0.3320 os         1 5AL      -0.594200
     29 HN           1.9290     1.9890    -0.0810 hn         1 5AL       0.458133
     30 HN6         -6.6330    -6.9580     8.4100 hn         1 5AL       0.440800
     31 HN6A        -5.0150    -7.5770     8.4610 hn         1 5AL       0.440800
     32 HB           2.9530     0.5420     1.4960 hc         1 5AL       0.079367
     33 HBA          1.2860     0.4790     2.0840 hc         1 5AL       0.079367
     34 HBB          2.1710    -1.0210     1.7710 hc         1 5AL       0.079367
     35 H1'         -4.8100    -6.7100     1.6690 h2         1 5AL       0.109700
     36 H2'         -6.9330    -4.5720     2.1900 h1         1 5AL       0.059700
     37 HO2'        -8.2290    -6.1250     1.3550 ho         1 5AL       0.403000
     38 H3'         -6.5880    -3.7210     0.0400 h1         1 5AL       0.053700
     39 HO3'        -6.7380    -5.1400    -1.5450 ho         1 5AL       0.404000
     40 H4'         -3.9380    -4.8690    -0.2960 h1         1 5AL       0.082700
     41 H5'         -4.8130    -2.2740     1.0350 h1         1 5AL       0.046700
     42 H5'A        -4.6690    -2.4920    -0.7150 h1         1 5AL       0.046700
     43 H18          1.4450     1.3610    -1.5110 hn         1 5AL       0.458133
     44 H19          1.8680    -0.8850    -0.5100 hx         1 5AL       0.125700
     45 H8          -4.5080    -3.9490     4.2490 h5         1 5AL       0.099800
     46 HN3          2.9510     1.0610    -0.9640 hn         1 5AL       0.458133
     47 H2          -6.7350   -10.0650     4.5610 h5         1 5AL       0.060100
@<TRIPOS>BOND
     1     1     3 2
     2     2    29 1
     3     4    28 1
     4     4    18 1
     5     6     5 ar
     6     6    47 1
     7     7     6 ar
     8     8     7 ar
     9     8     9 ar
    10     9    10 ar
    11    10     5 ar
    12    10    11 1
    13    11    30 1
    14    11    31 1
    15    12     9 1
    16    13    12 2
    17    13    45 1
    18    14     8 1
    19    14    13 1
    20    15     1 1
    21    15     2 1
    22    16    15 1
    23    16    32 1
    24    16    33 1
    25    16    34 1
    26    17    14 1
    27    17    35 1
    28    19    17 1
    29    19    36 1
    30    20    19 1
    31    20    37 1
    32    21     4 1
    33    22    19 1
    34    22    25 1
    35    22    38 1
    36    23    22 1
    37    23    39 1
    38    24     1 1
    39    24     4 1
    40    25    26 1
    41    25    40 1
    42    26    17 1
    43    27    25 1
    44    27    28 1
    45    27    41 1
    46    27    42 1
    47     2    43 1
    48    15    44 1
    49    46     2 1
@<TRIPOS>SUBSTRUCTURE
     1 5AL         1 TEMP              0 ****  ****    0 ROOT
