@<TRIPOS>MOLECULE
5AL
   47    49     1     0     0
SMALL
bcc


@<TRIPOS>ATOM
      1 C            0.0000     0.0000     0.0000 c          1 5AL       0.760100
      2 N            1.9980     1.1990    -0.6920 nz         1 5AL       0.087400
      3 O           -0.6040     1.0300    -0.1830 o          1 5AL      -0.550000
      4 P           -2.2780    -1.0590     0.1990 p5         1 5AL       0.909800
      5 N1          -6.3220    -8.8100     6.1570 nb         1 5AL      -0.665000
      6 C2          -6.3880    -9.0850     4.8680 ca         1 5AL       0.625900
      7 N3          -6.0480    -8.2160     3.9410 nb         1 5AL      -0.599000
      8 C4          -5.6160    -7.0040     4.2750 ca         1 5AL       0.228800
      9 C5          -5.5280    -6.6610     5.6350 ca         1 5AL      -0.180200
     10 C6          -5.9030    -7.6240     6.5870 ca         1 5AL       0.589200
     11 N6          -5.8380    -7.3440     7.9410 nv         1 5AL      -0.643500
     12 N7          -5.0670    -5.3880     5.6980 nc         1 5AL      -0.506100
     13 C8          -4.8720    -4.9400     4.4920 cd         1 5AL       0.280700
     14 N9          -5.1960    -5.8980     3.5790 na         1 5AL       0.207000
     15 CA           1.5070     0.0000     0.0000 c3         1 5AL      -0.175500
     16 CB           2.0160     0.0000     1.4430 c3         1 5AL       0.016900
     17 C1'         -5.1110    -5.7720     2.1220 c3         1 5AL       0.146800
     18 O1A         -2.7760    -0.1580     1.4360 o          1 5AL      -0.610500
     19 C2'         -6.4650    -5.2970     1.5350 c3         1 5AL       0.127100
     20 O2'         -7.3310    -6.4060     1.2910 oh         1 5AL      -0.544800
     21 O2A         -2.7330    -0.4490    -1.0710 o          1 5AL      -0.610500
     22 C3'         -6.0280    -4.6330     0.2080 c3         1 5AL       0.127100
     23 O3'         -6.1960    -5.5400    -0.8850 oh         1 5AL      -0.558800
     24 O3A         -0.6710    -1.1440     0.2070 os         1 5AL      -0.412500
     25 C4'         -4.5350    -4.3140     0.4180 c3         1 5AL       0.141100
     26 O4'         -4.1940    -4.7190     1.7560 os         1 5AL      -0.382600
     27 C5'         -4.2950    -2.8120     0.2500 c3         1 5AL       0.314400
     28 O5'         -2.8940    -2.5410     0.3320 os         1 5AL      -0.502200
     29 HN           1.9290     1.9890    -0.0810 hn         1 5AL       0.222133
     30 HN6         -6.6330    -6.9580     8.4100 hn         1 5AL       0.278300
     31 HN6A        -5.0150    -7.5770     8.4610 hn         1 5AL       0.278300
     32 HB           2.9530     0.5420     1.4960 hc         1 5AL       0.034033
     33 HBA          1.2860     0.4790     2.0840 hc         1 5AL       0.034033
     34 HBB          2.1710    -1.0210     1.7710 hc         1 5AL       0.034033
     35 H1'         -4.8100    -6.7100     1.6690 h2         1 5AL       0.066700
     36 H2'         -6.9330    -4.5720     2.1900 h1         1 5AL       0.022700
     37 HO2'        -8.2290    -6.1250     1.3550 ho         1 5AL       0.387000
     38 H3'         -6.5880    -3.7210     0.0400 h1         1 5AL       0.017700
     39 HO3'        -6.7380    -5.1400    -1.5450 ho         1 5AL       0.388000
     40 H4'         -3.9380    -4.8690    -0.2960 h1         1 5AL       0.042700
     41 H5'         -4.8130    -2.2740     1.0350 h1         1 5AL      -0.004300
     42 H5'A        -4.6690    -2.4920    -0.7150 h1         1 5AL      -0.004300
     43 H18          1.4450     1.3610    -1.5110 hn         1 5AL       0.222133
     44 H19          1.8680    -0.8850    -0.5100 hx         1 5AL       0.093700
     45 H8          -4.5080    -3.9490     4.2490 h5         1 5AL       0.050800
     46 HN3          2.9510     1.0610    -0.9640 hn         1 5AL       0.222133
     47 H2          -6.7350   -10.0650     4.5610 h5         1 5AL      -0.003900
@<TRIPOS>BOND
     1     1     3 2   
     2     1    15 1   
     3     1    24 1   
     4     2    15 1   
     5     2    29 1   
     6     2    43 1   
     7     2    46 1   
     8     4    18 1   
     9     4    21 1   
    10     4    24 1   
    11     4    28 1   
    12     5     6 ar  
    13     5    10 ar  
    14     6     7 ar  
    15     6    47 1   
    16     7     8 ar  
    17     8     9 ar  
    18     8    14 1   
    19     9    10 ar  
    20     9    12 1   
    21    10    11 1   
    22    11    30 1   
    23    11    31 1   
    24    12    13 2   
    25    13    14 1   
    26    13    45 1   
    27    14    17 1   
    28    15    16 1   
    29    15    44 1   
    30    16    32 1   
    31    16    33 1   
    32    16    34 1   
    33    17    19 1   
    34    17    26 1   
    35    17    35 1   
    36    19    20 1   
    37    19    22 1   
    38    19    36 1   
    39    20    37 1   
    40    22    23 1   
    41    22    25 1   
    42    22    38 1   
    43    23    39 1   
    44    25    26 1   
    45    25    27 1   
    46    25    40 1   
    47    27    28 1   
    48    27    41 1   
    49    27    42 1   
@<TRIPOS>SUBSTRUCTURE
     1 5AL         1 TEMP              0 ****  ****    0 ROOT
