@<TRIPOS>MOLECULE
5AM
   86    89     1     0     0
SMALL
bcc


@<TRIPOS>ATOM
      1 C1         -0.1280   -1.2820    2.2480 c3        1 5AM      0.218700
      2 C3         -1.6430   -1.7340    0.4320 c         1 5AM      0.630100
      3 C7         -5.0690   -5.1490   -0.0690 cc        1 5AM      0.439300
      4 C8          1.1010   -0.7980    1.5810 ca        1 5AM     -0.195300
      5 C9          2.2610   -1.5840    1.5930 ca        1 5AM     -0.092500
      6 C10         3.4350   -1.1020    1.0170 ca        1 5AM     -0.128500
      7 C11         3.4580    0.1650    0.4320 ca        1 5AM     -0.077000
      8 C12         2.3040    0.9510    0.4180 ca        1 5AM     -0.128500
      9 C13         1.1270    0.4730    0.9900 ca        1 5AM     -0.092500
     10 C15        -4.3910   -2.5910   -1.4860 c3        1 5AM     -0.098400
     11 C16        -4.8820   -1.1990   -1.1440 c3        1 5AM     -0.093400
     12 C22        -7.0550   -5.1710    0.8020 cd        1 5AM      0.536700
     13 N23        -5.9340   -4.4550    0.8260 nc        1 5AM     -0.704000
     14 N26        -9.0400   -3.8160    0.9980 n3        1 5AM     -0.776600
     15 C27       -10.4170   -3.9740    0.5610 c3        1 5AM      0.159300
     16 N29       -10.3570   -1.4920    0.1970 n         1 5AM     -0.423800
     17 C30        -9.2230   -1.3380    1.0920 c3        1 5AM      0.077500
     18 C31        -8.8270   -2.6430    1.8250 c3        1 5AM      0.159300
     19 C32       -10.3470   -0.8800   -1.0390 c         1 5AM      0.700100
     20 C33       -11.5100   -1.0290   -1.9980 c3        1 5AM     -0.147400
     21 C35       -12.7540   -0.3370   -1.4760 c3        1 5AM     -0.078400
     22 O2         -0.8440   -2.2380    1.3770 os        1 5AM     -0.404900
     23 N4         -2.0680   -2.8070   -0.5260 n4        1 5AM     -0.647800
     24 C5         -3.5300   -3.1830   -0.3640 c3        1 5AM      0.155500
     25 O14        -2.0370   -0.5800    0.3230 o         1 5AM     -0.449000
     26 C17        -5.7810   -0.6640   -2.2440 c3        1 5AM     -0.103400
     27 C18        -6.4790    0.6000   -1.7540 c3        1 5AM      0.105800
     28 N19        -7.4360    1.1620   -2.7460 n4        1 5AM     -0.830600
     29 N20        -5.6880   -6.2430   -0.5880 nd        1 5AM     -0.312300
     30 O21        -6.8920   -6.2800   -0.0810 os        1 5AM     -0.103100
     31 O24        -3.1150   -5.1960   -1.5390 oh        1 5AM     -0.617800
     32 C25        -8.3970   -5.0210    1.4610 c3        1 5AM      0.159500
     33 C28       -11.1930   -2.6320    0.5060 c3        1 5AM      0.077500
     34 O34        -9.3770   -0.1330   -1.3530 o         1 5AM     -0.768100
     35 C36       -13.8830   -0.4360   -2.4870 c3        1 5AM     -0.030100
     36 C37       -15.1170    0.2230   -1.9800 ca        1 5AM     -0.102300
     37 C38       -15.9310   -0.4320   -1.0480 ca        1 5AM     -0.126000
     38 C39       -15.4840    1.4920   -2.4410 ca        1 5AM     -0.126000
     39 C40       -17.0950    0.1760   -0.5810 ca        1 5AM     -0.121000
     40 C41       -16.6490    2.0980   -1.9740 ca        1 5AM     -0.121000
     41 C42       -17.4550    1.4430   -1.0430 ca        1 5AM     -0.115000
     42 C6         -3.6490   -4.7370   -0.3130 c3        1 5AM      0.128800
     43 H11A       -0.8340   -0.4560    2.5200 h1        1 5AM      0.102700
     44 H12A        0.0880   -1.9520    3.1270 h1        1 5AM      0.102700
     45 H9          2.2490   -2.5770    2.0690 ha        1 5AM      0.140500
     46 H10         4.3480   -1.7180    1.0360 ha        1 5AM      0.157000
     47 H11         4.3910    0.5490   -0.0120 ha        1 5AM      0.160000
     48 H12         2.3270    1.9550   -0.0340 ha        1 5AM      0.157000
     49 H13         0.2200    1.0970    0.9900 ha        1 5AM      0.140500
     50 H151       -5.2760   -3.2720   -1.6310 hc        1 5AM      0.091700
     51 H152       -3.8420   -2.5920   -2.4660 hc        1 5AM      0.091700
     52 H161       -5.4560   -1.2370   -0.1780 hc        1 5AM      0.069700
     53 H162       -4.0120   -0.5050   -0.9910 hc        1 5AM      0.069700
     54 H271      -10.3830   -4.4320   -0.4680 h1        1 5AM      0.057700
     55 H272      -11.0050   -4.6670    1.2300 h1        1 5AM      0.057700
     56 H301       -9.4910   -0.5680    1.8690 h1        1 5AM      0.070450
     57 H302       -8.3340   -0.9610    0.5120 h1        1 5AM      0.070450
     58 H311       -9.4090   -2.7040    2.7910 h1        1 5AM      0.057700
     59 H312       -7.7340   -2.5760    2.0850 h1        1 5AM      0.057700
     60 H331      -11.2040   -0.5620   -2.9720 hc        1 5AM      0.072200
     61 H332      -11.7160   -2.1130   -2.1980 hc        1 5AM      0.072200
     62 H351      -12.5280    0.7430   -1.2700 hc        1 5AM      0.059200
     63 H352      -13.0810   -0.7990   -0.5070 hc        1 5AM      0.059200
     64 HN4        -1.4820   -3.6430   -0.3790 hn        1 5AM      0.479300
     65 H5         -3.8690   -2.7790    0.6370 hx        1 5AM      0.133700
     66 H171       -5.1710   -0.4490   -3.1610 hc        1 5AM      0.072200
     67 H172       -6.5450   -1.4430   -2.5140 hc        1 5AM      0.072200
     68 H181       -7.0850    0.3610   -0.8250 hx        1 5AM      0.117200
     69 H182       -5.7190    1.3960   -1.5100 hx        1 5AM      0.117200
     70 H191       -7.9040    1.9790   -2.3380 hn        1 5AM      0.469133
     71 H192       -8.1680    0.4590   -2.9500 hn        1 5AM      0.469133
     72 HO24       -3.2650   -6.1510   -1.6150 ho        1 5AM      0.470000
     73 H251       -8.2220   -5.0250    2.5790 h1        1 5AM      0.095200
     74 H252       -9.0090   -5.9330    1.1930 h1        1 5AM      0.095200
     75 H281      -12.0260   -2.7400   -0.2400 h1        1 5AM      0.070450
     76 H282      -11.6560   -2.4390    1.5170 h1        1 5AM      0.070450
     77 H361      -13.5620    0.0380   -3.4530 hc        1 5AM      0.050200
     78 H362      -14.0970   -1.5180   -2.7030 hc        1 5AM      0.050200
     79 H38       -15.6550   -1.4340   -0.6900 ha        1 5AM      0.125500
     80 H39       -14.8580    2.0100   -3.1830 ha        1 5AM      0.125500
     81 H40       -17.7330   -0.3460    0.1470 ha        1 5AM      0.141500
     82 H41       -16.9360    3.0940   -2.3450 ha        1 5AM      0.141500
     83 H42       -18.3770    1.9210   -0.6780 ha        1 5AM      0.146000
     84 H6         -3.0300   -5.1420    0.5460 h1        1 5AM      0.086700
     85 H421       -1.9080   -2.4690   -1.4840 hn        1 5AM      0.479300
     86 H193       -6.9620    1.4280   -3.6100 hn        1 5AM      0.469133
@<TRIPOS>BOND
     1    1    4 1
     2    1   22 1
     3    1   43 1
     4    1   44 1
     5    2   22 1
     6    2   23 1
     7    2   25 2
     8    3   13 1
     9    3   29 2
    10    3   42 1
    11    4    5 ar
    12    4    9 ar
    13    5    6 ar
    14    5   45 1
    15    6    7 ar
    16    6   46 1
    17    7    8 ar
    18    7   47 1
    19    8    9 ar
    20    8   48 1
    21    9   49 1
    22   10   11 1
    23   10   24 1
    24   10   50 1
    25   10   51 1
    26   11   26 1
    27   11   52 1
    28   11   53 1
    29   12   13 2
    30   12   30 1
    31   12   32 1
    32   14   15 1
    33   14   18 1
    34   14   32 1
    35   15   33 1
    36   15   54 1
    37   15   55 1
    38   16   17 1
    39   16   19 1
    40   16   33 1
    41   17   18 1
    42   17   56 1
    43   17   57 1
    44   18   58 1
    45   18   59 1
    46   19   20 1
    47   19   34 2
    48   20   21 1
    49   20   60 1
    50   20   61 1
    51   21   35 1
    52   21   62 1
    53   21   63 1
    54   23   24 1
    55   23   64 1
    56   23   85 1
    57   24   42 1
    58   24   65 1
    59   26   27 1
    60   26   66 1
    61   26   67 1
    62   27   28 1
    63   27   68 1
    64   27   69 1
    65   28   70 1
    66   28   71 1
    67   28   86 1
    68   29   30 1
    69   31   42 1
    70   31   72 1
    71   32   73 1
    72   32   74 1
    73   33   75 1
    74   33   76 1
    75   35   36 1
    76   35   77 1
    77   35   78 1
    78   36   37 ar
    79   36   38 ar
    80   37   39 ar
    81   37   79 1
    82   38   40 ar
    83   38   80 1
    84   39   41 ar
    85   39   81 1
    86   40   41 ar
    87   40   82 1
    88   41   83 1
    89   42   84 1
@<TRIPOS>SUBSTRUCTURE
     1 5AM         1 TEMP              0 ****  ****    0 ROOT
