@<TRIPOS>MOLECULE
5AN
   14    14     1     0     0
SMALL
bcc


@<TRIPOS>ATOM
      1 C4           0.0000     0.0000     0.0000 ca         1 5AN      -0.174000
      2 C5           1.3840     0.0000     0.0000 ca         1 5AN       0.137900
      3 C3          -0.6940     0.0000     1.1970 ca         1 5AN       0.137900
      4 C6           2.0770     0.0000     1.1970 ca         1 5AN      -0.162000
      5 C2          -0.0060    -0.0040     2.3970 ca         1 5AN      -0.162000
      6 C1           1.3830     0.0010     2.3990 ca         1 5AN       0.084600
      7 N            2.0800     0.0010     3.6090 nv         1 5AN      -0.559200
      8 F5           2.0600    -0.0000    -1.1710 f          1 5AN      -0.125900
      9 F3          -2.0460     0.0000     1.1950 f          1 5AN      -0.125900
     10 HC4         -0.5410     0.0020    -0.9390 ha         1 5AN       0.134000
     11 HC6          3.1600     0.0020     1.1960 ha         1 5AN       0.128000
     12 HC2         -0.5500    -0.0040     3.3340 ha         1 5AN       0.128000
     13 HN1          2.3290     0.8680     4.0440 hn         1 5AN       0.278800
     14 HN2          2.3310    -0.8660     4.0430 hn         1 5AN       0.278800
@<TRIPOS>BOND
     1     1     2 ar  
     2     1     3 ar  
     3     1    10 1   
     4     2     4 ar  
     5     2     8 1   
     6     3     5 ar  
     7     3     9 1   
     8     4     6 ar  
     9     4    11 1   
    10     5     6 ar  
    11     5    12 1   
    12     6     7 1   
    13     7    13 1   
    14     7    14 1   
@<TRIPOS>SUBSTRUCTURE
     1 5AN         1 TEMP              0 ****  ****    0 ROOT
