@<TRIPOS>MOLECULE
molecule
   46    48     1     0     0
SMALL
bcc


@<TRIPOS>ATOM
      1 Cl2          0.0000     0.0000     0.0000 cl         1 5AP      -0.038400
      2 C17          1.7360     0.0000     0.0000 ca         1 5AP       0.079400
      3 C16          2.4280     0.0000     1.1950 ca         1 5AP      -0.102000
      4 C14          3.8120    -0.0010     1.1960 ca         1 5AP       0.058400
      5 Cl1          4.6760     0.0080     2.7010 cl         1 5AP      -0.048400
      6 C13          4.5100    -0.0070    -0.0010 ca         1 5AP      -0.123000
      7 C12          3.8280    -0.0130    -1.1990 ca         1 5AP      -0.130000
      8 C11          2.4340    -0.0120    -1.2060 cp         1 5AP      -0.178500
      9 C10          1.6970    -0.0200    -2.4930 cp         1 5AP       0.586800
     10 C19          1.9480    -1.0050    -3.4460 ca         1 5AP      -0.496900
     11 C20          2.9720    -2.0810    -3.1910 c3         1 5AP       0.180100
     12 N21          4.2520    -1.6930    -3.7960 nz         1 5AP      -0.811600
     13 C22          1.2300    -0.9710    -4.6400 ca         1 5AP       0.761200
     14 N23          1.4450    -1.9290    -5.6170 nv         1 5AP      -1.061500
     15 N9           0.7890     0.9180    -2.7560 nb         1 5AP      -0.719000
     16 C2           0.1230     0.9150    -3.9000 cp         1 5AP       0.836500
     17 N1           0.3350    -0.0060    -4.8300 nb         1 5AP      -0.755000
     18 C3          -0.8860     1.9740    -4.1520 cp         1 5AP      -0.120500
     19 C4          -1.1200     2.9550    -3.1920 ca         1 5AP      -0.139500
     20 C5          -2.0650     3.9410    -3.4280 ca         1 5AP       0.147100
     21 O25         -2.2990     4.8960    -2.4900 os         1 5AP      -0.286400
     22 C28         -3.3060     5.7590    -3.0210 c3         1 5AP       0.102700
     23 C6          -2.7690     3.9560    -4.6230 ca         1 5AP      -0.283000
     24 C7          -2.5340     2.9840    -5.5830 ca         1 5AP       0.147100
     25 C8          -1.5930     1.9940    -5.3510 ca         1 5AP      -0.139500
     26 O26         -3.2250     3.0040    -6.7530 os         1 5AP      -0.286400
     27 C29         -4.1060     4.1280    -6.6930 c3         1 5AP       0.102700
     28 H16          1.8870     0.0170     2.1340 ha         1 5AP       0.181000
     29 H13          5.5930    -0.0080     0.0050 ha         1 5AP       0.157000
     30 H12          4.3760    -0.0210    -2.1340 ha         1 5AP       0.093000
     31 H201         3.1010    -2.2100    -2.1230 hx         1 5AP       0.111200
     32 H202         2.6330    -3.0120    -3.6290 hx         1 5AP       0.111200
     33 H211         4.9950    -1.8800    -3.1520 hn         1 5AP       0.453467
     34 H212         4.3970    -2.2180    -4.6350 hn         1 5AP       0.453467
     35 H231         1.3460    -2.9000    -5.3960 hn         1 5AP       0.453800
     36 H232         1.6580    -1.6490    -6.5540 hn         1 5AP       0.453800
     37 H4          -0.5250     2.9820    -2.2870 ha         1 5AP       0.167000
     38 H281        -4.2050     5.1870    -3.2180 h1         1 5AP       0.049367
     39 H282        -2.9520     6.2040    -3.9430 h1         1 5AP       0.049367
     40 H283        -3.5260     6.5410    -2.3040 h1         1 5AP       0.049367
     41 H6          -3.5060     4.7290    -4.8060 ha         1 5AP       0.167000
     42 H8          -1.4090     1.2340    -6.1010 ha         1 5AP       0.167000
     43 H291        -4.7780     4.0160    -5.8510 h1         1 5AP       0.049367
     44 H292        -4.6810     4.1840    -7.6090 h1         1 5AP       0.049367
     45 H293        -3.5260     5.0350    -6.5750 h1         1 5AP       0.049367
     46 H213         4.2390    -0.7150    -4.0060 hn         1 5AP       0.453467
@<TRIPOS>BOND
     1     1     2 1   
     2     2     3 ar  
     3     2     8 ar  
     4     3     4 ar  
     5     3    28 1   
     6     4     5 1   
     7     4     6 ar  
     8     6     7 ar  
     9     6    29 1   
    10     7     8 ar  
    11     7    30 1   
    12     8     9 1   
    13     9    10 ar  
    14     9    15 ar  
    15    10    11 1   
    16    10    13 ar  
    17    11    12 1   
    18    11    31 1   
    19    11    32 1   
    20    12    33 1   
    21    12    34 1   
    22    13    14 1   
    23    13    17 ar  
    24    14    35 1   
    25    14    36 1   
    26    15    16 ar  
    27    16    17 ar  
    28    16    18 1   
    29    18    19 ar  
    30    18    25 ar  
    31    19    20 ar  
    32    19    37 1   
    33    20    21 1   
    34    20    23 ar  
    35    21    22 1   
    36    22    38 1   
    37    22    39 1   
    38    22    40 1   
    39    23    24 ar  
    40    23    41 1   
    41    24    25 ar  
    42    24    26 1   
    43    25    42 1   
    44    26    27 1   
    45    27    43 1   
    46    27    44 1   
    47    27    45 1   
    48    46    12 1   
@<TRIPOS>SUBSTRUCTURE
     1 5AP         1 TEMP              0 ****  ****    0 ROOT
