@<TRIPOS>MOLECULE
molecule
   56    59     1     0     0
SMALL
bcc


@<TRIPOS>ATOM
      1 C2           0.0000     0.0000     0.0000 ca         1 5AQ       0.740900
      2 C4          -0.1050    -0.0050     2.2960 ca         1 5AQ       0.491800
      3 C5           1.2980    -0.0110     2.3490 ca         1 5AQ      -0.203200
      4 C6           2.0080     0.0000     1.1370 ca         1 5AQ       0.783200
      5 N9          -0.5380    -0.0060     3.6020 na         1 5AQ      -0.228000
      6 CBA          5.9060     1.1450    12.3740 ca         1 5AQ      -0.121500
      7 CBB          6.1190     1.1410    13.7400 ca         1 5AQ      -0.124500
      8 CBC          6.2150    -0.0580    14.4210 ca         1 5AQ      -0.126000
      9 CBD          6.0990    -1.2530    13.7360 ca         1 5AQ      -0.124500
     10 CBE          5.8850    -1.2490    12.3700 ca         1 5AQ      -0.121500
     11 CAZ          5.7840    -0.0500    11.6900 ca         1 5AQ      -0.087300
     12 CAY          5.5510    -0.0450    10.2010 c3         1 5AQ      -0.053100
     13 CAX          4.0480    -0.0390     9.9190 c3         1 5AQ       0.116000
     14 NAW          3.8220    -0.0350     8.4720 ns         1 5AQ      -0.584900
     15 CAV          2.5650    -0.0280     7.9850 c          1 5AQ       0.673100
     16 OBF          1.6200    -0.0270     8.7460 o          1 5AQ      -0.599100
     17 CAU          2.3330    -0.0240     6.4970 c3         1 5AQ      -0.108300
     18 C8           0.5720    -0.0110     4.4010 cc         1 5AQ       0.422700
     19 N7           1.6520    -0.0150     3.6590 nd         1 5AQ      -0.613100
     20 N6           3.3940    -0.0000     1.1280 nv         1 5AQ      -0.987500
     21 N1           1.3200     0.0000     0.0000 nb         1 5AQ      -0.833000
     22 N3          -0.7060     0.0010     1.1110 nb         1 5AQ      -0.783000
     23 C1'         -1.9320    -0.0000     4.0530 c3         1 5AQ       0.251800
     24 O4'         -2.0880     0.8500     5.2100 os         1 5AQ      -0.386600
     25 C4'         -3.2860     0.4270     5.8820 c3         1 5AQ       0.121100
     26 C5'         -3.1210     0.5940     7.3950 c3         1 5AQ       0.140400
     27 O5'         -3.0210     1.9840     7.7110 oh         1 5AQ      -0.589800
     28 C3'         -3.5020    -1.0600     5.5410 c3         1 5AQ       0.091100
     29 O3'         -4.7630    -1.2450     4.8920 oh         1 5AQ      -0.570800
     30 C2'         -2.3420    -1.4000     4.5760 c3         1 5AQ       0.091100
     31 O2'         -2.7950    -2.2310     3.5050 oh         1 5AQ      -0.561800
     32 H1          -0.5220    -0.0000    -0.9490 h5         1 5AQ       0.063100
     33 H3           6.2120     2.0780    14.2760 ha         1 5AQ       0.131500
     34 H4           6.3820    -0.0610    15.4910 ha         1 5AQ       0.131000
     35 H5           6.1760    -2.1930    14.2690 ha         1 5AQ       0.131500
     36 H6           5.7920    -2.1850    11.8330 ha         1 5AQ       0.130500
     37 H7           5.9970    -0.9300     9.7630 hc         1 5AQ       0.052200
     38 H8           6.0030     0.8390     9.7670 hc         1 5AQ       0.052200
     39 H9           3.5960    -0.9230    10.3530 h1         1 5AQ       0.059700
     40 H10          3.6020     0.8460    10.3570 h1         1 5AQ       0.059700
     41 H11          4.6020    -0.0370     7.8440 hn         1 5AQ       0.315500
     42 H12          2.7860     0.8600     6.0640 h1         1 5AQ       0.093200
     43 H13          2.7790    -0.9090     6.0590 h1         1 5AQ       0.093200
     44 H14          3.8880    -0.0220     0.2580 hn         1 5AQ       0.448300
     45 H15          3.9000     0.0340     1.9910 hn         1 5AQ       0.448300
     46 H16         -2.5960     0.3160     3.2580 h2         1 5AQ       0.121700
     47 H17         -4.1290     1.0110     5.5310 h1         1 5AQ       0.085700
     48 H18         -2.2220     0.0840     7.7180 h1         1 5AQ       0.035200
     49 H19         -3.9800     0.1700     7.9010 h1         1 5AQ       0.035200
     50 H20         -3.3220     2.1280     8.5930 ho         1 5AQ       0.402000
     51 H21         -3.4380    -1.6650     6.4370 h1         1 5AQ       0.049700
     52 H22         -5.3120    -1.7980     5.4240 ho         1 5AQ       0.404000
     53 H23         -1.5220    -1.8640     5.1120 h1         1 5AQ       0.065700
     54 H24         -2.4570    -3.1040     3.6190 ho         1 5AQ       0.405000
     55 SAT          0.5540    -0.0160     6.1630 ss         1 5AQ      -0.060300
     56 H2           5.8290     2.0850    11.8410 ha         1 5AQ       0.130500
@<TRIPOS>BOND
     1    13    12 1
     2    13    14 1
     3    12    11 1
     4    10    11 ar
     5    10     9 ar
     6    11     6 ar
     7    14    15 1
     8    16    15 2
     9     9     8 ar
    10    20     4 1
    11    15    17 1
    12     6     7 ar
    13     8     7 ar
    14     4    21 ar
    15     4     3 ar
    16    17    55 1
    17    19     3 1
    18    19    18 2
    19    21     1 ar
    20     3     2 ar
    21    18    55 1
    22    18     5 1
    23     1    22 ar
    24     2     5 1
    25     2    22 ar
    26     5    23 1
    27    24    23 1
    28    24    25 1
    29    23    30 1
    30    26    25 1
    31    26    27 1
    32    30    28 1
    33    30    31 1
    34    25    28 1
    35    28    29 1
    36     1    32 1
    37     6    56 1
    38     7    33 1
    39     8    34 1
    40     9    35 1
    41    10    36 1
    42    12    37 1
    43    12    38 1
    44    13    39 1
    45    13    40 1
    46    14    41 1
    47    17    42 1
    48    17    43 1
    49    20    44 1
    50    20    45 1
    51    23    46 1
    52    25    47 1
    53    26    48 1
    54    26    49 1
    55    27    50 1
    56    28    51 1
    57    29    52 1
    58    30    53 1
    59    31    54 1
@<TRIPOS>SUBSTRUCTURE
     1 5AQ         1 TEMP              0 ****  ****    0 ROOT
