@<TRIPOS>MOLECULE
5AQ
   56    59     1     0     0
SMALL
bcc


@<TRIPOS>ATOM
      1 C2           0.0000     0.0000     0.0000 ca         1 5AQ       0.689900
      2 C4          -0.1050    -0.0050     2.2960 ca         1 5AQ       0.279800
      3 C5           1.2980    -0.0110     2.3490 ca         1 5AQ      -0.233200
      4 C6           2.0080     0.0000     1.1370 ca         1 5AQ       0.587200
      5 N9          -0.5380    -0.0060     3.6020 na         1 5AQ       0.257000
      6 CBA          5.9060     1.1450    12.3740 ca         1 5AQ      -0.094500
      7 CBB          6.1190     1.1410    13.7400 ca         1 5AQ      -0.096500
      8 CBC          6.2150    -0.0580    14.4210 ca         1 5AQ      -0.099000
      9 CBD          6.0990    -1.2530    13.7360 ca         1 5AQ      -0.096500
     10 CBE          5.8850    -1.2490    12.3700 ca         1 5AQ      -0.094500
     11 CAZ          5.7840    -0.0500    11.6900 ca         1 5AQ      -0.093300
     12 CAY          5.5510    -0.0450    10.2010 c3         1 5AQ       0.019900
     13 CAX          4.0480    -0.0390     9.9190 c3         1 5AQ       0.051000
     14 NAW          3.8220    -0.0350     8.4720 ns         1 5AQ      -0.196900
     15 CAV          2.5650    -0.0280     7.9850 c          1 5AQ       0.587100
     16 OBF          1.6200    -0.0270     8.7460 o          1 5AQ      -0.627100
     17 CAU          2.3330    -0.0240     6.4970 c3         1 5AQ       0.007700
     18 C8           0.5720    -0.0110     4.4010 cc         1 5AQ       0.257700
     19 N7           1.6520    -0.0150     3.6590 nd         1 5AQ      -0.528100
     20 N6           3.3940    -0.0000     1.1280 nv         1 5AQ      -0.487500
     21 N1           1.3200     0.0000     0.0000 nb         1 5AQ      -0.740000
     22 N3          -0.7060     0.0010     1.1110 nb         1 5AQ      -0.667000
     23 C1'         -1.9320    -0.0000     4.0530 c3         1 5AQ       0.132800
     24 O4'         -2.0880     0.8500     5.2100 os         1 5AQ      -0.365600
     25 C4'         -3.2860     0.4270     5.8820 c3         1 5AQ       0.148100
     26 C5'         -3.1210     0.5940     7.3950 c3         1 5AQ       0.213400
     27 O5'         -3.0210     1.9840     7.7110 oh         1 5AQ      -0.573800
     28 C3'         -3.5020    -1.0600     5.5410 c3         1 5AQ       0.135100
     29 O3'         -4.7630    -1.2450     4.8920 oh         1 5AQ      -0.551800
     30 C2'         -2.3420    -1.4000     4.5760 c3         1 5AQ       0.122100
     31 O2'         -2.7950    -2.2310     3.5050 oh         1 5AQ      -0.543800
     32 H1          -0.5220    -0.0000    -0.9490 h5         1 5AQ      -0.003900
     33 H3           6.2120     2.0780    14.2760 ha         1 5AQ       0.103500
     34 H4           6.3820    -0.0610    15.4910 ha         1 5AQ       0.103000
     35 H5           6.1760    -2.1930    14.2690 ha         1 5AQ       0.103500
     36 H6           5.7920    -2.1850    11.8330 ha         1 5AQ       0.105500
     37 H7           5.9970    -0.9300     9.7630 hc         1 5AQ       0.019200
     38 H8           6.0030     0.8390     9.7670 hc         1 5AQ       0.019200
     39 H9           3.5960    -0.9230    10.3530 h1         1 5AQ       0.031700
     40 H10          3.6020     0.8460    10.3570 h1         1 5AQ       0.031700
     41 H11          4.6020    -0.0370     7.8440 hn         1 5AQ       0.174500
     42 H12          2.7860     0.8600     6.0640 h1         1 5AQ       0.059700
     43 H13          2.7790    -0.9090     6.0590 h1         1 5AQ       0.059700
     44 H14          3.8880    -0.0220     0.2580 hn         1 5AQ       0.274800
     45 H15          3.9000     0.0340     1.9910 hn         1 5AQ       0.274800
     46 H16         -2.5960     0.3160     3.2580 h2         1 5AQ       0.079700
     47 H17         -4.1290     1.0110     5.5310 h1         1 5AQ       0.047700
     48 H18         -2.2220     0.0840     7.7180 h1         1 5AQ       0.000700
     49 H19         -3.9800     0.1700     7.9010 h1         1 5AQ       0.000700
     50 H20         -3.3220     2.1280     8.5930 ho         1 5AQ       0.387000
     51 H21         -3.4380    -1.6650     6.4370 h1         1 5AQ       0.015700
     52 H22         -5.3120    -1.7980     5.4240 ho         1 5AQ       0.388000
     53 H23         -1.5220    -1.8640     5.1120 h1         1 5AQ       0.034700
     54 H24         -2.4570    -3.1040     3.6190 ho         1 5AQ       0.388000
     55 SAT          0.5540    -0.0160     6.1630 ss         1 5AQ      -0.205300
     56 H2           5.8290     2.0850    11.8410 ha         1 5AQ       0.105500
@<TRIPOS>BOND
     1     1    21 ar  
     2     1    22 ar  
     3     1    32 1   
     4     2     3 ar  
     5     2     5 1   
     6     2    22 ar  
     7     3     4 ar  
     8     3    19 1   
     9     4    20 1   
    10     4    21 ar  
    11     5    18 1   
    12     5    23 1   
    13     6     7 ar  
    14     6    11 ar  
    15     6    56 1   
    16     7     8 ar  
    17     7    33 1   
    18     8     9 ar  
    19     8    34 1   
    20     9    10 ar  
    21     9    35 1   
    22    10    11 ar  
    23    10    36 1   
    24    11    12 1   
    25    12    13 1   
    26    12    37 1   
    27    12    38 1   
    28    13    14 1   
    29    13    39 1   
    30    13    40 1   
    31    14    15 1   
    32    14    41 1   
    33    15    16 2   
    34    15    17 1   
    35    17    42 1   
    36    17    43 1   
    37    17    55 1   
    38    18    19 2   
    39    18    55 1   
    40    20    44 1   
    41    20    45 1   
    42    23    24 1   
    43    23    30 1   
    44    23    46 1   
    45    24    25 1   
    46    25    26 1   
    47    25    28 1   
    48    25    47 1   
    49    26    27 1   
    50    26    48 1   
    51    26    49 1   
    52    27    50 1   
    53    28    29 1   
    54    28    30 1   
    55    28    51 1   
    56    29    52 1   
    57    30    31 1   
    58    30    53 1   
    59    31    54 1   
@<TRIPOS>SUBSTRUCTURE
     1 5AQ         1 TEMP              0 ****  ****    0 ROOT
