@<TRIPOS>MOLECULE
molecule
   43    45     1     0     0
SMALL
bcc


@<TRIPOS>ATOM
      1 S            0.0000     0.0000     0.0000 s6         1 5AS       1.659400
      2 N1S          1.6560     0.0000     0.0000 n7         1 5AS      -0.939100
      3 O2S         -0.3860     0.0000     1.3660 o          1 5AS      -0.655800
      4 O3S         -0.3850     0.9710    -0.9640 o          1 5AS      -0.655800
      5 O5'         -0.4540    -1.3400    -0.5590 os         1 5AS      -0.529500
      6 C5'         -0.5790    -2.2300     0.5510 c3         1 5AS       0.132400
      7 C4'         -1.0360    -3.6030     0.0570 c3         1 5AS       0.128100
      8 O4'         -0.0550    -4.1520    -0.8390 os         1 5AS      -0.405600
      9 C3'         -1.1660    -4.5740     1.2470 c3         1 5AS       0.088100
     10 O3'         -2.5050    -5.0580     1.3630 oh         1 5AS      -0.565800
     11 C2'         -0.1970    -5.7320     0.8950 c3         1 5AS       0.095100
     12 O2'         -0.7730    -6.9950     1.2310 oh         1 5AS      -0.554800
     13 C1'         -0.0540    -5.5810    -0.6400 c3         1 5AS       0.259800
     14 N9           1.2060    -6.1660    -1.1040 na         1 5AS      -0.251000
     15 C8           2.4180    -5.5440    -1.1380 cc         1 5AS       0.421700
     16 N7           3.3210    -6.3570    -1.6070 nd         1 5AS      -0.586100
     17 C5           2.7460    -7.5470    -1.9020 ca         1 5AS      -0.215200
     18 C6           3.2120    -8.7670    -2.4220 ca         1 5AS       0.789200
     19 N6           4.5440    -8.9330    -2.7550 nv         1 5AS      -0.983500
     20 N1           2.3420    -9.7580    -2.5870 nb         1 5AS      -0.836000
     21 C2           1.0680    -9.6080    -2.2730 ca         1 5AS       0.744900
     22 N3           0.5890    -8.4850    -1.7830 nb         1 5AS      -0.786000
     23 C4           1.3840    -7.4410    -1.5770 ca         1 5AS       0.484800
     24 C10          2.3890    -0.1630    -1.2580 c3         1 5AS       0.230800
     25 C11          3.8930    -0.1280    -0.9800 c3         1 5AS      -0.102100
     26 H1S          2.1550     0.1350     0.8560 hn         1 5AS       0.452800
     27 H5'1         0.3790    -2.3250     1.0480 h1         1 5AS       0.076700
     28 H5'2        -1.3090    -1.8360     1.2480 h1         1 5AS       0.076700
     29 H4'         -1.9880    -3.5190    -0.4510 h1         1 5AS       0.096700
     30 H3'         -0.8530    -4.0880     2.1630 h1         1 5AS       0.049700
     31 HO'3        -2.8750    -4.7670     2.1800 ho         1 5AS       0.409000
     32 H2'          0.7590    -5.5940     1.3850 h1         1 5AS       0.057700
     33 HO'2        -0.3920    -7.3110     2.0340 ho         1 5AS       0.408000
     34 H1'         -0.8990    -6.0330    -1.1450 h2         1 5AS       0.120700
     35 H8           2.6040    -4.5250    -0.8220 h5         1 5AS       0.082800
     36 H61          4.8620    -9.8060    -3.1270 hn         1 5AS       0.450300
     37 H62          5.1900    -8.1800    -2.6240 hn         1 5AS       0.450300
     38 H2           0.3930   -10.4420    -2.4230 h5         1 5AS       0.063100
     39 H101         2.1280     0.6410    -1.9350 h1         1 5AS       0.052200
     40 H102         2.1270    -1.1130    -1.7070 h1         1 5AS       0.052200
     41 H111         4.1440    -0.8940    -0.2560 hc         1 5AS       0.043700
     42 H112         4.1650     0.8440    -0.5870 hc         1 5AS       0.043700
     43 H113         4.4340    -0.3100    -1.9010 hc         1 5AS       0.043700
@<TRIPOS>BOND
     1     1     2 1
     2     1     3 2
     3     1     4 2
     4     1     5 1
     5     2    24 1
     6     2    26 1
     7     5     6 1
     8     6     7 1
     9     6    27 1
    10     6    28 1
    11     7     8 1
    12     7     9 1
    13     7    29 1
    14     8    13 1
    15     9    10 1
    16     9    11 1
    17     9    30 1
    18    10    31 1
    19    11    12 1
    20    11    13 1
    21    11    32 1
    22    12    33 1
    23    13    14 1
    24    13    34 1
    25    14    15 1
    26    14    23 1
    27    15    16 2
    28    15    35 1
    29    16    17 1
    30    17    18 ar
    31    17    23 ar
    32    18    19 1
    33    18    20 ar
    34    19    36 1
    35    19    37 1
    36    20    21 ar
    37    21    22 ar
    38    21    38 1
    39    22    23 ar
    40    24    25 1
    41    24    39 1
    42    24    40 1
    43    25    41 1
    44    25    42 1
    45    25    43 1
@<TRIPOS>SUBSTRUCTURE
     1 5AS         1 TEMP              0 ****  ****    0 ROOT
