@<TRIPOS>MOLECULE
5AV
   31    33     1     0     0
SMALL
bcc


@<TRIPOS>ATOM
      1 C2           0.0000     0.0000     0.0000 cc         1 5AV       0.016300
      2 C3           2.0500     0.0000    -1.1900 cc         1 5AV       0.242500
      3 N4           1.3860     0.0010    -2.3550 nc         1 5AV      -0.588000
      4 C7           3.4030     0.0010    -0.8810 cd         1 5AV      -0.371600
      5 C9          -2.1650    -0.0120     1.1740 c3         1 5AV       0.275100
      6 C10         -2.6800    -0.0170     2.5900 cc         1 5AV      -0.169700
      7 C11         -3.5090    -0.4520     4.8670 cc         1 5AV       0.459700
      8 C13         -2.9540     1.0600     3.3310 cd         1 5AV       0.366600
      9 C15         -3.9940    -0.9560     6.2010 c3         1 5AV      -0.003400
     10 C            0.0700     0.0000    -2.3850 cd         1 5AV       0.472300
     11 N            1.3690     0.0000     0.0000 na         1 5AV       0.481200
     12 S           -3.0360    -1.4460     3.5590 ss         1 5AV      -0.288300
     13 Cl          -0.7580    -0.0010    -3.9110 cl         1 5AV      -0.076000
     14 C1          -0.6630    -0.0010    -1.1960 cd         1 5AV      -0.401300
     15 N5           2.3160     0.0000     1.0310 nc         1 5AV      -0.758100
     16 C6           3.5180     0.0000     0.5020 cd         1 5AV       0.497500
     17 N8          -0.7000    -0.0060     1.1870 nu         1 5AV      -0.377600
     18 N12         -3.3940     0.7910     4.5440 nd         1 5AV      -0.565000
     19 C14         -2.7730     2.4660     2.8230 c3         1 5AV      -0.025400
     20 H1           4.2210     0.0010    -1.5910 ha         1 5AV       0.149000
     21 H2          -2.5180    -0.8980     0.6590 h1         1 5AV       0.031200
     22 H3          -2.5250     0.8720     0.6620 h1         1 5AV       0.031200
     23 H4          -5.0100    -0.6180     6.3680 hc         1 5AV       0.021367
     24 H5          -3.3530    -0.5750     6.9870 hc         1 5AV       0.021367
     25 H6          -3.9690    -2.0390     6.2090 hc         1 5AV       0.021367
     26 H7          -1.7460    -0.0010    -1.2220 ha         1 5AV       0.150000
     27 H8           4.4490     0.0000     1.0560 h4         1 5AV       0.011800
     28 H9          -0.2070    -0.0240     2.0590 hn         1 5AV       0.322800
     29 H10         -3.1330     3.1680     3.5660 hc         1 5AV       0.018367
     30 H11         -1.7230     2.6500     2.6320 hc         1 5AV       0.018367
     31 H12         -3.3340     2.5930     1.9050 hc         1 5AV       0.018367
@<TRIPOS>BOND
     1     1    11 1   
     2     1    14 2   
     3     1    17 1   
     4     2     3 1   
     5     2     4 2   
     6     2    11 1   
     7     3    10 2   
     8     4    16 1   
     9     4    20 1   
    10     5     6 1   
    11     5    17 1   
    12     5    21 1   
    13     5    22 1   
    14     6     8 2   
    15     6    12 1   
    16     7     9 1   
    17     7    12 1   
    18     7    18 2   
    19     8    18 1   
    20     8    19 1   
    21     9    23 1   
    22     9    24 1   
    23     9    25 1   
    24    10    13 1   
    25    10    14 1   
    26    11    15 1   
    27    14    26 1   
    28    15    16 2   
    29    16    27 1   
    30    17    28 1   
    31    19    29 1   
    32    19    30 1   
    33    19    31 1   
@<TRIPOS>SUBSTRUCTURE
     1 5AV         1 TEMP              0 ****  ****    0 ROOT
