@<TRIPOS>MOLECULE
molecule
   77    78     1     0     0
SMALL
bcc


@<TRIPOS>ATOM
      1 O25          0.0000     0.0000     0.0000 o          1 5AW      -0.613000
      2 C24          1.2150     0.0000     0.0000 c          1 5AW       0.749100
      3 O26          1.8880     0.0000     1.1660 os         1 5AW      -0.441900
      4 C27          1.0970     0.0010     2.3830 c3         1 5AW       0.254700
      5 C28          2.0150     0.0010     3.5790 cc         1 5AW      -0.162700
      6 S32          2.6520    -1.4230     4.3970 ss         1 5AW      -0.195300
      7 C31          3.4990    -0.4240     5.4950 cc         1 5AW       0.448300
      8 N30          3.2850     0.8180     5.2230 nd         1 5AW      -0.681000
      9 C29          2.4940     1.0820     4.2020 cd         1 5AW       0.390200
     10 N23          1.8880    -0.0070    -1.1670 ns         1 5AW      -0.569900
     11 C21          1.1560    -0.0130    -2.4360 c3         1 5AW       0.130700
     12 C22          0.7920     1.4220    -2.8220 c3         1 5AW      -0.113100
     13 C20          2.0330    -0.6300    -3.5270 c3         1 5AW      -0.097400
     14 C19          2.2930    -2.1020    -3.2040 c3         1 5AW      -0.098400
     15 C17          3.1700    -2.7170    -4.2950 c3         1 5AW       0.112700
     16 C18          3.3280    -4.2170    -4.0380 c3         1 5AW      -0.107100
     17 N16          4.4890    -2.0780    -4.2810 ns         1 5AW      -0.579900
     18 C14          5.2400    -2.0600    -5.3990 c          1 5AW       0.656100
     19 O15          4.8680    -2.6510    -6.3910 o          1 5AW      -0.619100
     20 C13          6.5450    -1.3060    -5.4180 c3         1 5AW       0.069700
     21 C33          7.6670    -2.2160    -4.9140 c3         1 5AW      -0.086700
     22 C35          7.4240    -2.5590    -3.4420 c3         1 5AW      -0.091100
     23 C34          7.6910    -3.5030    -5.7400 c3         1 5AW      -0.091100
     24 N12          6.8410    -0.8770    -6.7870 ns         1 5AW      -0.590900
     25 C10          7.6310     0.1940    -7.0010 c          1 5AW       0.788100
     26 O11          8.0970     0.8040    -6.0600 o          1 5AW      -0.646100
     27 N08          7.9040     0.5880    -8.2610 n          1 5AW      -0.507800
     28 C09          7.3430    -0.1480    -9.3970 c3         1 5AW       0.090300
     29 C07          8.7630     1.7530    -8.4950 c3         1 5AW       0.105700
     30 C06         10.1990     1.3070    -8.5910 cd         1 5AW       0.352600
     31 N05         10.9650     1.1380    -7.5330 nd         1 5AW      -0.654000
     32 C36         10.7970     1.0450    -9.7570 cc         1 5AW      -0.190400
     33 S37         12.4560     0.5600    -9.4170 ss         1 5AW      -0.224300
     34 C04         12.1790     0.7530    -7.7410 cc         1 5AW       0.459700
     35 C02         13.2040     0.5090    -6.6630 c3         1 5AW      -0.098000
     36 C03         13.6710    -0.9460    -6.7240 c3         1 5AW      -0.090600
     37 C01         14.4010     1.4380    -6.8790 c3         1 5AW      -0.090600
     38 H1           0.4730     0.8860     2.4080 h1         1 5AW       0.064700
     39 H2           0.4720    -0.8830     2.4090 h1         1 5AW       0.064700
     40 H3           4.1260    -0.7830     6.3030 h5         1 5AW       0.063100
     41 H4           2.2520     2.0920     3.8930 h4         1 5AW       0.049100
     42 H5           2.8890     0.0180    -1.1670 hn         1 5AW       0.321500
     43 H6           0.2510    -0.5980    -2.3280 h1         1 5AW       0.082700
     44 H7           1.4070     2.1140    -2.2600 hc         1 5AW       0.046367
     45 H8           0.9640     1.5650    -3.8820 hc         1 5AW       0.046367
     46 H9          -0.2520     1.6030    -2.5980 hc         1 5AW       0.046367
     47 H10          1.5270    -0.5540    -4.4820 hc         1 5AW       0.055200
     48 H11          2.9760    -0.0980    -3.5750 hc         1 5AW       0.055200
     49 H12          1.3500    -2.6330    -3.1560 hc         1 5AW       0.055700
     50 H13          2.7990    -2.1780    -2.2490 hc         1 5AW       0.055700
     51 H14          2.7050    -2.5640    -5.2610 h1         1 5AW       0.077700
     52 H15          3.9000    -4.3700    -3.1310 hc         1 5AW       0.044367
     53 H16          2.3490    -4.6690    -3.9270 hc         1 5AW       0.044367
     54 H17          3.8440    -4.6740    -4.8730 hc         1 5AW       0.044367
     55 H18          4.8120    -1.6170    -3.4540 hn         1 5AW       0.316500
     56 H19          6.4690    -0.4370    -4.7760 h1         1 5AW       0.083700
     57 H20          8.6180    -1.7060    -5.0130 hc         1 5AW       0.083700
     58 H21          6.8840    -1.7490    -2.9680 hc         1 5AW       0.037700
     59 H22          6.8410    -3.4700    -3.3760 hc         1 5AW       0.037700
     60 H23          8.3740    -2.7010    -2.9430 hc         1 5AW       0.037700
     61 H24          8.5260    -4.1180    -5.4270 hc         1 5AW       0.037700
     62 H25          6.7660    -4.0470    -5.5890 hc         1 5AW       0.037700
     63 H26          7.7980    -3.2570    -6.7900 hc         1 5AW       0.037700
     64 H27          6.4140    -1.3460    -7.5610 hn         1 5AW       0.331500
     65 H28          7.7330    -1.1590    -9.4000 h1         1 5AW       0.038700
     66 H29          7.6180     0.3480   -10.3200 h1         1 5AW       0.038700
     67 H30          6.2640    -0.1770    -9.3100 h1         1 5AW       0.038700
     68 H31          8.6560     2.4510    -7.6730 h1         1 5AW       0.073200
     69 H32          8.4720     2.2360    -9.4190 h1         1 5AW       0.073200
     70 H33         10.3440     1.1200   -10.7380 h4         1 5AW       0.175000
     71 H34         12.7630     0.7070    -5.6940 hc         1 5AW       0.086700
     72 H35         12.8120    -1.6040    -6.6660 hc         1 5AW       0.041033
     73 H36         14.1960    -1.1180    -7.6560 hc         1 5AW       0.041033
     74 H37         14.3360    -1.1470    -5.8920 hc         1 5AW       0.041033
     75 H38         14.0590     2.4660    -6.9090 hc         1 5AW       0.041033
     76 H39         15.1040     1.3160    -6.0640 hc         1 5AW       0.041033
     77 H40         14.8860     1.1910    -7.8150 hc         1 5AW       0.041033
@<TRIPOS>BOND
     1    23    21 1   
     2    35    36 1   
     3    35    34 1   
     4    35    37 1   
     5    33    34 1   
     6    33    32 1   
     7    19    18 2   
     8    34    31 2   
     9    32    30 2   
    10    21    20 1   
    11    21    22 1   
    12    26    25 2   
    13    20    18 1   
    14    20    24 1   
    15    18    17 1   
    16    31    30 1   
    17    30    29 1   
    18    25    24 1   
    19    25    27 1   
    20    16    15 1   
    21     7     6 1   
    22     7     8 2   
    23    27    29 1   
    24    27    28 1   
    25    17    15 1   
    26     6     5 1   
    27    15    14 1   
    28    14    13 1   
    29    13    11 1   
    30     1     2 2   
    31     8     9 1   
    32    10     2 1   
    33    10    11 1   
    34     2     3 1   
    35     5     9 2   
    36     5     4 1   
    37    11    12 1   
    38     3     4 1   
    39     4    38 1   
    40     4    39 1   
    41     7    40 1   
    42     9    41 1   
    43    10    42 1   
    44    11    43 1   
    45    12    44 1   
    46    12    45 1   
    47    12    46 1   
    48    13    47 1   
    49    13    48 1   
    50    14    49 1   
    51    14    50 1   
    52    15    51 1   
    53    16    52 1   
    54    16    53 1   
    55    16    54 1   
    56    17    55 1   
    57    20    56 1   
    58    21    57 1   
    59    22    58 1   
    60    22    59 1   
    61    22    60 1   
    62    23    61 1   
    63    23    62 1   
    64    23    63 1   
    65    24    64 1   
    66    28    65 1   
    67    28    66 1   
    68    28    67 1   
    69    29    68 1   
    70    29    69 1   
    71    32    70 1   
    72    35    71 1   
    73    36    72 1   
    74    36    73 1   
    75    36    74 1   
    76    37    75 1   
    77    37    76 1   
    78    37    77 1   
@<TRIPOS>SUBSTRUCTURE
     1 5AW         1 TEMP              0 ****  ****    0 ROOT
