@<TRIPOS>MOLECULE
5AX
   29    29     1     0     0
SMALL
bcc


@<TRIPOS>ATOM
      1 C4           0.0000     0.0000     0.0000 c3         1 5AX       0.139100
      2 C5           1.5310     0.0000     0.0000 c3         1 5AX       0.160100
      3 C6           2.0410     1.2500    -0.7200 c3         1 5AX       0.226400
      4 C7          -0.3920    -2.3790     4.2660 c          1 5AX       0.573100
      5 C8          -0.8180    -3.6160     5.0130 c3         1 5AX      -0.067100
      6 C1           1.6060    -1.1430     2.1080 c3         1 5AX       0.197400
      7 C2           0.0780    -1.1880     2.1920 c3         1 5AX      -0.034300
      8 C3          -0.5030    -1.2220     0.7750 c3         1 5AX       0.158100
      9 N2          -0.3370    -2.3910     2.9190 ns         1 5AX      -0.186900
     10 O3          -1.9300    -1.1900     0.8420 oh         1 5AX      -0.581800
     11 O4          -0.4780    -0.0580    -1.3450 oh         1 5AX      -0.585800
     12 O5           2.0060     0.0000     1.3480 os         1 5AX      -0.377600
     13 O6           3.4650     1.1920    -0.8220 oh         1 5AX      -0.582800
     14 O7          -0.0990    -1.3730     4.8750 o          1 5AX      -0.642100
     15 H4          -0.3600     0.9030     0.4780 h1         1 5AX       0.028700
     16 H5           1.8900    -0.8870    -0.5070 h1         1 5AX       0.026700
     17 H61          1.7550     2.1320    -0.1610 h1         1 5AX      -0.002800
     18 H62          1.6100     1.2960    -1.7130 h1         1 5AX      -0.002800
     19 H81         -0.7920    -3.4210     6.0780 hc         1 5AX       0.022700
     20 H82         -1.8250    -3.8870     4.7200 hc         1 5AX       0.022700
     21 H83         -0.1420    -4.4300     4.7790 hc         1 5AX       0.022700
     22 H11          1.9670    -2.0420     1.6230 h1         1 5AX       0.020700
     23 H12          2.0200    -1.0740     3.1070 h1         1 5AX       0.020700
     24 H2          -0.2810    -0.3060     2.7080 h1         1 5AX       0.080700
     25 H3          -0.1790    -2.1260     0.2730 h1         1 5AX       0.012700
     26 HN2         -0.5690    -3.2250     2.4160 hn         1 5AX       0.169500
     27 HO3         -2.2870    -1.8560     0.2770 ho         1 5AX       0.395000
     28 HO4         -1.1990     0.5410    -1.4490 ho         1 5AX       0.400000
     29 HO6          3.7740     1.9230    -1.3320 ho         1 5AX       0.388000
@<TRIPOS>BOND
     1     1     2 1   
     2     1     8 1   
     3     1    11 1   
     4     1    15 1   
     5     2     3 1   
     6     2    12 1   
     7     2    16 1   
     8     3    13 1   
     9     3    17 1   
    10     3    18 1   
    11     4     5 1   
    12     4     9 1   
    13     4    14 2   
    14     5    19 1   
    15     5    20 1   
    16     5    21 1   
    17     6     7 1   
    18     6    12 1   
    19     6    22 1   
    20     6    23 1   
    21     7     8 1   
    22     7     9 1   
    23     7    24 1   
    24     8    10 1   
    25     8    25 1   
    26     9    26 1   
    27    10    27 1   
    28    11    28 1   
    29    13    29 1   
@<TRIPOS>SUBSTRUCTURE
     1 5AX         1 TEMP              0 ****  ****    0 ROOT
