@<TRIPOS>MOLECULE
5AY
   49    53     1     0     0
SMALL
bcc


@<TRIPOS>ATOM
      1 C2           0.0000     0.0000     0.0000 cc         1 5AY      -0.420300
      2 C3           1.3640     0.0000     0.0000 cd         1 5AY       0.032300
      3 N4           2.0320     0.0000     1.1990 na         1 5AY       0.459200
      4 C7           2.3310     0.0000    -3.6010 cc         1 5AY      -0.367600
      5 C9          -2.6790     0.0040     2.5150 c3         1 5AY       0.250400
      6 C10         -4.1970     0.0100     2.3290 cx         1 5AY      -0.105700
      7 C11         -4.9760    -1.2050     2.8390 cx         1 5AY      -0.088400
      8 C12         -5.0620     0.1280     3.5860 cx         1 5AY      -0.141000
      9 C13         -6.3480     0.9060     3.4750 ca         1 5AY       0.411600
     10 C15         -8.6680     1.0010     2.9210 ca         1 5AY      -0.065000
     11 N19          3.3930    -0.0010     1.5230 nc         1 5AY      -0.767100
     12 C20          3.5160    -0.0020     2.8300 cd         1 5AY       0.499500
     13 C21          2.2520    -0.0020     3.4030 cd         1 5AY      -0.396600
     14 N23          3.6920    -0.7300    -5.1580 nd         1 5AY      -0.644800
     15 C            1.3230    -0.0010     2.3720 cd         1 5AY       0.280500
     16 N           -0.0190    -0.0000     2.3600 nd         1 5AY      -0.712000
     17 C1          -0.6870    -0.0010     1.2220 cc         1 5AY       0.698600
     18 N5           2.0640     0.0010    -1.1880 nu         1 5AY      -0.376600
     19 C6           1.3420     0.0000    -2.4630 c3         1 5AY       0.272100
     20 C8           2.8560     1.0950    -4.1980 cd         1 5AY      -0.222300
     21 C14         -7.4900     0.2760     3.0190 ca         1 5AY      -0.224300
     22 C16         -8.6520     2.3390     3.2860 ca         1 5AY      -0.227300
     23 C17         -7.4730     2.8990     3.7390 ca         1 5AY       0.405200
     24 N18         -6.3710     2.1790     3.8190 nb         1 5AY      -0.568000
     25 N22          3.7000     0.6710    -5.1620 na         1 5AY       0.498400
     26 C24          2.8710    -1.1310    -4.2210 cc         1 5AY       0.415200
     27 C25          4.4850     1.5250    -6.0560 c3         1 5AY       0.020600
     28 H1          -0.5470    -0.0010    -0.9350 ha         1 5AY       0.152000
     29 H2          -2.3860    -0.8830     3.0630 h1         1 5AY       0.018700
     30 H3          -2.3790     0.8860     3.0680 h1         1 5AY       0.018700
     31 H4          -4.6140     0.4780     1.4460 hc         1 5AY       0.069700
     32 H5          -5.8510    -1.4750     2.2610 hc         1 5AY       0.052200
     33 H6          -4.3820    -1.9720     3.3200 hc         1 5AY       0.052200
     34 H7          -4.5080     0.1630     4.5160 hc         1 5AY       0.072700
     35 H8          -9.5780     0.5340     2.5640 ha         1 5AY       0.107000
     36 H9           4.4530    -0.0020     3.3730 h4         1 5AY       0.007800
     37 H10          2.0310    -0.0030     4.4630 ha         1 5AY       0.146000
     38 H11          3.0640    -0.0280    -1.1800 hn         1 5AY       0.319800
     39 H12          0.7200    -0.8850    -2.5250 h1         1 5AY       0.020700
     40 H13          0.7190     0.8840    -2.5250 h1         1 5AY       0.020700
     41 H14          2.6390     2.1260    -3.9470 h4         1 5AY       0.149000
     42 H15         -7.4660    -0.7710     2.7420 ha         1 5AY       0.123000
     43 H16         -9.5540     2.9350     3.2220 ha         1 5AY       0.113000
     44 H17         -7.4520     3.9420     4.0280 h4         1 5AY      -0.020900
     45 H18          2.6470    -2.1610    -3.9700 h4         1 5AY       0.008100
     46 H19          5.0710     0.9060    -6.7250 h1         1 5AY       0.024367
     47 H20          5.1480     2.1500    -5.4690 h1         1 5AY       0.024367
     48 H21          3.8180     2.1520    -6.6360 h1         1 5AY       0.024367
     49 O           -2.0420     0.0050     1.2360 os         1 5AY      -0.421100
@<TRIPOS>BOND
     1     1     2 2   
     2     1    17 1   
     3     1    28 1   
     4     2     3 1   
     5     2    18 1   
     6     3    11 1   
     7     3    15 1   
     8     4    19 1   
     9     4    20 2   
    10     4    26 1   
    11     5     6 1   
    12     5    29 1   
    13     5    30 1   
    14     5    49 1   
    15     6     7 1   
    16     6     8 1   
    17     6    31 1   
    18     7     8 1   
    19     7    32 1   
    20     7    33 1   
    21     8     9 1   
    22     8    34 1   
    23     9    21 ar  
    24     9    24 ar  
    25    10    21 ar  
    26    10    22 ar  
    27    10    35 1   
    28    11    12 2   
    29    12    13 1   
    30    12    36 1   
    31    13    15 2   
    32    13    37 1   
    33    14    25 1   
    34    14    26 2   
    35    15    16 1   
    36    16    17 2   
    37    17    49 1   
    38    18    19 1   
    39    18    38 1   
    40    19    39 1   
    41    19    40 1   
    42    20    25 1   
    43    20    41 1   
    44    21    42 1   
    45    22    23 ar  
    46    22    43 1   
    47    23    24 ar  
    48    23    44 1   
    49    25    27 1   
    50    26    45 1   
    51    27    46 1   
    52    27    47 1   
    53    27    48 1   
@<TRIPOS>SUBSTRUCTURE
     1 5AY         1 TEMP              0 ****  ****    0 ROOT
