@<TRIPOS>MOLECULE
molecule
   49    53     1     0     0
SMALL
bcc


@<TRIPOS>ATOM
      1 C2           0.0000     0.0000     0.0000 cc         1 5AY      -0.435300
      2 C3           1.3640     0.0000     0.0000 cd         1 5AY       0.348300
      3 N4           2.0320     0.0000     1.1990 na         1 5AY      -0.015800
      4 C7           2.3310     0.0000    -3.6010 cd         1 5AY      -0.352600
      5 C9          -2.6790     0.0040     2.5150 c3         1 5AY       0.179400
      6 C10         -4.1970     0.0100     2.3290 cx         1 5AY      -0.119700
      7 C11         -4.9760    -1.2050     2.8390 cx         1 5AY      -0.133400
      8 C12         -5.0620     0.1280     3.5860 cx         1 5AY      -0.167000
      9 C13         -6.3480     0.9060     3.4750 ca         1 5AY       0.458600
     10 C15         -8.6680     1.0010     2.9210 ca         1 5AY      -0.091000
     11 N19          3.3930    -0.0010     1.5230 nd         1 5AY      -0.601100
     12 C20          3.5160    -0.0020     2.8300 cc         1 5AY       0.426500
     13 C21          2.2520    -0.0020     3.4030 cc         1 5AY      -0.399600
     14 N23          3.6920    -0.7300    -5.1580 nc         1 5AY      -0.505800
     15 C            1.3230    -0.0010     2.3720 cd         1 5AY       0.476500
     16 N           -0.0190    -0.0000     2.3600 nd         1 5AY      -0.822000
     17 C1          -0.6870    -0.0010     1.2220 cc         1 5AY       0.738600
     18 N5           2.0640     0.0010    -1.1880 nu         1 5AY      -0.794600
     19 C6           1.3420     0.0000    -2.4630 c3         1 5AY       0.323100
     20 C8           2.8560     1.0950    -4.1980 cc         1 5AY      -0.084300
     21 C14         -7.4900     0.2760     3.0190 ca         1 5AY      -0.248300
     22 C16         -8.6520     2.3390     3.2860 ca         1 5AY      -0.258300
     23 C17         -7.4730     2.8990     3.7390 ca         1 5AY       0.424200
     24 N18         -6.3710     2.1790     3.8190 nb         1 5AY      -0.684000
     25 N22          3.7000     0.6710    -5.1620 na         1 5AY       0.070400
     26 C24          2.8710    -1.1310    -4.2210 cd         1 5AY       0.350200
     27 C25          4.4850     1.5250    -6.0560 c3         1 5AY       0.060600
     28 H1          -0.5470    -0.0010    -0.9350 ha         1 5AY       0.166000
     29 H2          -2.3860    -0.8830     3.0630 h1         1 5AY       0.058700
     30 H3          -2.3790     0.8860     3.0680 h1         1 5AY       0.058700
     31 H4          -4.6140     0.4780     1.4460 hc         1 5AY       0.099700
     32 H5          -5.8510    -1.4750     2.2610 hc         1 5AY       0.079700
     33 H6          -4.3820    -1.9720     3.3200 hc         1 5AY       0.079700
     34 H7          -4.5080     0.1630     4.5160 hc         1 5AY       0.102700
     35 H8          -9.5780     0.5340     2.5640 ha         1 5AY       0.137000
     36 H9           4.4530    -0.0020     3.3730 h4         1 5AY       0.057800
     37 H10          2.0310    -0.0030     4.4630 ha         1 5AY       0.168000
     38 H11          3.0640    -0.0280    -1.1800 hn         1 5AY       0.468800
     39 H12          0.7200    -0.8850    -2.5250 h1         1 5AY       0.052200
     40 H13          0.7190     0.8840    -2.5250 h1         1 5AY       0.052200
     41 H14          2.6390     2.1260    -3.9470 h4         1 5AY       0.176000
     42 H15         -7.4660    -0.7710     2.7420 ha         1 5AY       0.142000
     43 H16         -9.5540     2.9350     3.2220 ha         1 5AY       0.138000
     44 H17         -7.4520     3.9420     4.0280 h4         1 5AY       0.024100
     45 H18          2.6470    -2.1610    -3.9700 h4         1 5AY       0.054100
     46 H19          5.0710     0.9060    -6.7250 h1         1 5AY       0.058367
     47 H20          5.1480     2.1500    -5.4690 h1         1 5AY       0.058367
     48 H21          3.8180     2.1520    -6.6360 h1         1 5AY       0.058367
     49 O           -2.0420     0.0050     1.2360 os         1 5AY      -0.433100
@<TRIPOS>BOND
     1    12    11 2
     2    12    13 1
     3    11     3 1
     4    13    15 2
     5     3    15 1
     6     3     2 1
     7    15    16 1
     8    18     2 1
     9    18    19 1
    10     2     1 2
    11    16    17 2
    12    20     4 2
    13    20    25 1
    14    19     4 1
    15    27    25 1
    16     1    17 1
    17    17    49 1
    18     4    26 1
    19    25    14 1
    20     5    49 1
    21     5     6 1
    22    26    14 2
    23     6     8 1
    24     6     7 1
    25     8     7 1
    26     8     9 1
    27    24     9 ar
    28    24    23 ar
    29     9    21 ar
    30    23    22 ar
    31    21    10 ar
    32    22    10 ar
    33     1    28 1
    34     5    29 1
    35     5    30 1
    36     6    31 1
    37     7    32 1
    38     7    33 1
    39     8    34 1
    40    10    35 1
    41    12    36 1
    42    13    37 1
    43    18    38 1
    44    19    39 1
    45    19    40 1
    46    20    41 1
    47    21    42 1
    48    22    43 1
    49    23    44 1
    50    26    45 1
    51    27    46 1
    52    27    47 1
    53    27    48 1
@<TRIPOS>SUBSTRUCTURE
     1 5AY         1 TEMP              0 ****  ****    0 ROOT
