@<TRIPOS>MOLECULE
5AZ
   13    13     1     0     0
SMALL
bcc


@<TRIPOS>ATOM
      1 C1           0.0000     0.0000     0.0000 c          1 5AZ       0.668900
      2 N2           1.3490     0.0000     0.0000 ns         1 5AZ       0.009600
      3 C3           2.0140     0.0000     1.1900 cc         1 5AZ       0.064800
      4 N4           1.3270     0.0010     2.3240 nd         1 5AZ      -0.560000
      5 C5           0.0010     0.0010     2.3050 cd         1 5AZ       0.658200
      6 N6          -0.6600     0.0010     1.1650 nc         1 5AZ      -0.458100
      7 N7           3.3780    -0.0010     1.2150 nz         1 5AZ       0.200400
      8 O8          -0.6140     0.0050    -1.0530 o          1 5AZ      -0.533500
      9 HN2          1.8560    -0.0010    -0.8630 hn         1 5AZ       0.204500
     10 H5          -0.5460     0.0020     3.2400 h5         1 5AZ       0.052800
     11 H1N7         3.6950    -0.0010     2.1640 hn         1 5AZ       0.230467
     12 H2N7         3.7210     0.8160     0.7490 hn         1 5AZ       0.230467
     13 H73          3.7200    -0.8190     0.7490 hn         1 5AZ       0.230467
@<TRIPOS>BOND
     1     1     2 1   
     2     1     6 1   
     3     1     8 2   
     4     2     3 1   
     5     2     9 1   
     6     3     4 2   
     7     3     7 1   
     8     4     5 1   
     9     5     6 2   
    10     5    10 1   
    11     7    11 1   
    12     7    12 1   
    13     7    13 1   
@<TRIPOS>SUBSTRUCTURE
     1 5AZ         1 TEMP              0 ****  ****    0 ROOT
