@<TRIPOS>MOLECULE
molecule
   28    28     1     0     0
SMALL
bcc


@<TRIPOS>ATOM
      1 OAE          0.0000     0.0000     0.0000 o          1 5B0      -0.910500
      2 PAP          1.6100     0.0000     0.0000 p5         1 5B0       1.037700
      3 OAF          2.1470     0.0000     1.5180 o          1 5B0      -0.910500
      4 OAC          2.1030    -1.2080    -0.6990 o          1 5B0      -0.910500
      5 CAJ          2.2180     1.4890    -0.8600 c3         1 5B0      -0.231600
      6 CAI          3.7430     1.4270    -0.9690 c3         1 5B0      -0.020100
      7 CAN          4.2450     2.6580    -1.6790 ca         1 5B0      -0.109600
      8 CAH          4.4790     2.6330    -3.0410 ca         1 5B0       0.389200
      9 NAK          4.9180     3.7030    -3.6730 nb         1 5B0      -0.701000
     10 CAL          5.1540     4.8360    -3.0390 ca         1 5B0       0.339600
     11 CAA          5.6560     6.0300    -3.8080 c3         1 5B0      -0.122400
     12 CAM          4.9430     4.9380    -1.6720 ca         1 5B0      -0.014200
     13 OAD          5.1860     6.1070    -1.0230 oh         1 5B0      -0.528100
     14 CAO          4.4740     3.8290    -0.9760 ca         1 5B0      -0.085300
     15 C1           4.2250     3.8990     0.5090 c3         1 5B0       0.186700
     16 O2           5.4170     3.5340     1.2100 oh         1 5B0      -0.602800
     17 HAJ1         1.7860     1.5350    -1.8520 hc         1 5B0       0.019700
     18 HAJ2         1.9320     2.3710    -0.3000 hc         1 5B0       0.019700
     19 HAI1         4.0290     0.5450    -1.5290 hc         1 5B0       0.071200
     20 HAI2         4.1750     1.3810     0.0230 hc         1 5B0       0.071200
     21 HAH          4.2970     1.7210    -3.5980 h4         1 5B0       0.032100
     22 HAA1         6.5660     6.3980    -3.3500 hc         1 5B0       0.032033
     23 HAA2         4.9040     6.8100    -3.7940 hc         1 5B0       0.032033
     24 HAA3         5.8580     5.7420    -4.8320 hc         1 5B0       0.032033
     25 HAD          4.4210     6.6560    -1.0680 ho         1 5B0       0.400000
     26 H11C         3.9410     4.9080     0.7810 h1         1 5B0       0.047700
     27 H12C         3.4270     3.2160     0.7740 h1         1 5B0       0.047700
     28 H2           5.3560     3.8230     2.1050 ho         1 5B0       0.389000
@<TRIPOS>BOND
     1     1     2 1   
     2     2     3 1   
     3     2     4 1   
     4     2     5 1   
     5     5     6 1   
     6     6     7 1   
     7     7     8 ar  
     8     7    14 ar  
     9     8     9 ar  
    10     9    10 ar  
    11    10    11 1   
    12    10    12 ar  
    13    12    13 1   
    14    12    14 ar  
    15    14    15 1   
    16    15    16 1   
    17     5    17 1   
    18     5    18 1   
    19     6    19 1   
    20     6    20 1   
    21     8    21 1   
    22    11    22 1   
    23    11    23 1   
    24    11    24 1   
    25    13    25 1   
    26    15    26 1   
    27    15    27 1   
    28    16    28 1   
@<TRIPOS>SUBSTRUCTURE
     1 5B0         1 TEMP              0 ****  ****    0 ROOT
