@<TRIPOS>MOLECULE
5B0
   28    28     1     0     0
SMALL
bcc


@<TRIPOS>ATOM
      1 OAE         0.6950    1.2870    1.0430 o         1 5B0     -0.949167
      2 PAP         2.0010    0.6410    0.6550 p5        1 5B0      1.228700
      3 OAF         3.2000    1.2340    1.3930 o         1 5B0     -0.949167
      4 OAC         2.0160   -0.8610    0.5550 o         1 5B0     -0.949167
      5 CAJ         2.2260    1.2100   -1.0560 c3        1 5B0     -0.285600
      6 CAI         3.6870    1.3030   -1.3560 c3        1 5B0     -0.018100
      7 CAN         4.1350    2.6140   -1.9020 ca        1 5B0     -0.073600
      8 CAH         4.5100    2.7240   -3.2650 ca        1 5B0      0.321200
      9 NAK         5.0070    3.8250   -3.8460 nb        1 5B0     -0.682000
     10 CAL         5.1960    4.9180   -3.0680 ca        1 5B0      0.312600
     11 CAA         5.7620    6.1670   -3.6530 c3        1 5B0     -0.112400
     12 CAM         4.8490    4.9040   -1.6910 ca        1 5B0      0.008800
     13 OAD         5.1140    6.0540   -0.9760 oh        1 5B0     -0.535100
     14 CAO         4.2700    3.7620   -1.1040 ca        1 5B0     -0.124300
     15 C1          3.7960    3.7900    0.3210 c3        1 5B0      0.157700
     16 O2          4.8430    3.4770    1.2140 oh        1 5B0     -0.676800
     17 HAJ1        1.7240    0.4750   -1.7170 hc        1 5B0      0.029700
     18 HAJ2        1.7030    2.1840   -1.1560 hc        1 5B0      0.029700
     19 HAI1        3.9940    0.5020   -2.0860 hc        1 5B0      0.054700
     20 HAI2        4.2550    1.1240   -0.3880 hc        1 5B0      0.054700
     21 HAH         4.3930    1.8510   -3.9310 h4        1 5B0      0.003100
     22 HAA1        6.4880    6.6180   -2.9310 hc        1 5B0      0.027033
     23 HAA2        6.2840    5.9810   -4.6230 hc        1 5B0      0.027033
     24 HAA3        4.9390    6.9040   -3.8270 hc        1 5B0      0.027033
     25 HAD         5.0840    5.8160   -0.0350 ho        1 5B0      0.435000
     26 H11C        2.9410    3.0520    0.4670 h1        1 5B0      0.074700
     27 H12C        3.4460    4.8280    0.5820 h1        1 5B0      0.074700
     28 H2          4.6460    2.5710    1.5420 ho        1 5B0      0.489000
@<TRIPOS>BOND
     1    1    2 1   
     2    2    3 1   
     3    2    4 1   
     4    2    5 1   
     5    5    6 1   
     6    5   17 1   
     7    5   18 1   
     8    6    7 1   
     9    6   19 1   
    10    6   20 1   
    11    7    8 ar  
    12    7   14 ar  
    13    8    9 ar  
    14    8   21 1   
    15    9   10 ar  
    16   10   11 1   
    17   10   12 ar  
    18   11   22 1   
    19   11   23 1   
    20   11   24 1   
    21   12   13 1   
    22   12   14 ar  
    23   13   25 1   
    24   14   15 1   
    25   15   16 1   
    26   15   26 1   
    27   15   27 1   
    28   16   28 1   
@<TRIPOS>SUBSTRUCTURE
     1 5B0         1 TEMP              0 ****  ****    0 ROOT
