@<TRIPOS>MOLECULE
molecule
   17    18     1     0     0
SMALL
bcc


@<TRIPOS>ATOM
      1 C7           0.0000     0.0000     0.0000 ca         1 5B1      -0.274900
      2 C6           1.3970     0.0000     0.0000 ca         1 5B1      -0.019000
      3 C1          -1.0180     0.0000    -1.0530 cc         1 5B1       0.625800
      4 N1          -0.7790     0.0010    -2.4300 nv         1 5B1      -0.973800
      5 C5           2.0720     0.0000     1.1880 ca         1 5B1      -0.070900
      6 C4           1.3830    -0.0010     2.3940 ca         1 5B1      -0.056000
      7 Br1          3.9630    -0.0010     1.1900 br         1 5B1      -0.101100
      8 C3           0.0170    -0.0010     2.4190 ca         1 5B1      -0.165000
      9 C2          -0.6980     0.0060     1.2230 ca         1 5B1       0.006800
     10 N3          -2.0340     0.0050     0.9170 na         1 5B1      -0.046100
     11 N2          -2.1880     0.0000    -0.4730 nd         1 5B1      -0.570100
     12 H6           1.9420     0.0010    -0.9360 ha         1 5B1       0.141000
     13 HN1          0.0730    -0.3830    -2.7900 hn         1 5B1       0.443800
     14 HN1A        -1.4510     0.4010    -3.0540 hn         1 5B1       0.443800
     15 H4           1.9350    -0.0010     3.3260 ha         1 5B1       0.145000
     16 H3          -0.5090    -0.0020     3.3660 ha         1 5B1       0.137000
     17 HN3         -2.7810     0.0060     1.5830 hn         1 5B1       0.334700
@<TRIPOS>BOND
     1     1     2 ar
     2     1     3 1
     3     1     9 ar
     4     2     5 ar
     5     3     4 1
     6     3    11 2
     7     5     6 ar
     8     5     7 1
     9     6     8 ar
    10     8     9 ar
    11     9    10 1
    12    10    11 1
    13     2    12 1
    14     4    13 1
    15     4    14 1
    16     6    15 1
    17     8    16 1
    18    10    17 1
@<TRIPOS>SUBSTRUCTURE
     1 5B1         1 TEMP              0 ****  ****    0 ROOT
