@<TRIPOS>MOLECULE
5B1
   17    18     1     0     0
SMALL
bcc


@<TRIPOS>ATOM
      1 C7           0.0000     0.0000     0.0000 ca         1 5B1      -0.283900
      2 C6           1.3970     0.0000     0.0000 ca         1 5B1       0.010000
      3 C1          -1.0180     0.0000    -1.0530 cc         1 5B1       0.501800
      4 N1          -0.7790     0.0010    -2.4300 nv         1 5B1      -0.485800
      5 C5           2.0720     0.0000     1.1880 ca         1 5B1      -0.018900
      6 C4           1.3830    -0.0010     2.3940 ca         1 5B1      -0.035000
      7 Br1          3.9630    -0.0010     1.1900 br         1 5B1      -0.137100
      8 C3           0.0170    -0.0010     2.4190 ca         1 5B1      -0.126000
      9 C2          -0.6980     0.0060     1.2230 ca         1 5B1      -0.161200
     10 N3          -2.0340     0.0050     0.9170 na         1 5B1       0.425900
     11 N2          -2.1880     0.0000    -0.4730 nd         1 5B1      -0.715100
     12 H6           1.9420     0.0010    -0.9360 ha         1 5B1       0.110000
     13 HN1          0.0730    -0.3830    -2.7900 hn         1 5B1       0.271300
     14 HN1A        -1.4510     0.4010    -3.0540 hn         1 5B1       0.271300
     15 H4           1.9350    -0.0010     3.3260 ha         1 5B1       0.114000
     16 H3          -0.5090    -0.0020     3.3660 ha         1 5B1       0.108000
     17 HN3         -2.7810     0.0060     1.5830 hn         1 5B1       0.151700
@<TRIPOS>BOND
     1     1     2 ar  
     2     1     3 1   
     3     1     9 ar  
     4     2     5 ar  
     5     2    12 1   
     6     3     4 1   
     7     3    11 2   
     8     4    13 1   
     9     4    14 1   
    10     5     6 ar  
    11     5     7 1   
    12     6     8 ar  
    13     6    15 1   
    14     8     9 ar  
    15     8    16 1   
    16     9    10 1   
    17    10    11 1   
    18    10    17 1   
@<TRIPOS>SUBSTRUCTURE
     1 5B1         1 TEMP              0 ****  ****    0 ROOT
