@<TRIPOS>MOLECULE
5B2
   27    29     1     0     0
SMALL
bcc


@<TRIPOS>ATOM
      1 C7           0.0000     0.0000     0.0000 ca         1 5B2      -0.264900
      2 C6           1.3950     0.0000     0.0000 ca         1 5B2      -0.007000
      3 C1          -1.0150     0.0010    -1.0560 cc         1 5B2       0.487800
      4 N1          -0.7750     0.0020    -2.4320 nv         1 5B2      -0.573800
      5 C5           2.0770     0.0000     1.2080 cp         1 5B2      -0.080000
      6 C4           1.3690    -0.0010     2.4160 ca         1 5B2      -0.054000
      7 C3           0.0060    -0.0000     2.4230 ca         1 5B2      -0.121000
      8 C2          -0.7010     0.0060     1.2220 ca         1 5B2      -0.182200
      9 N3          -2.0370     0.0050     0.9120 na         1 5B2       0.419900
     10 N2          -2.1870     0.0010    -0.4780 nd         1 5B2      -0.646100
     11 C8           3.5610    -0.0010     1.2200 cp         1 5B2      -0.017000
     12 C13          4.2510    -0.0010     2.4310 ca         1 5B2      -0.107000
     13 C12          5.6300    -0.0010     2.4360 ca         1 5B2      -0.095000
     14 C11          6.3290    -0.0010     1.2420 ca         1 5B2      -0.107000
     15 C10          5.6490    -0.0010     0.0370 ca         1 5B2      -0.095000
     16 C9           4.2690    -0.0070     0.0210 ca         1 5B2      -0.107000
     17 H6           1.9420     0.0010    -0.9360 ha         1 5B2       0.113000
     18 HN1         -0.7060     0.8680    -2.9280 hn         1 5B2       0.273300
     19 HN1A        -0.7070    -0.8650    -2.9280 hn         1 5B2       0.273300
     20 H4           1.9100    -0.0010     3.3540 ha         1 5B2       0.111000
     21 H3          -0.5290    -0.0010     3.3650 ha         1 5B2       0.104000
     22 HN3         -2.7850     0.0060     1.5760 hn         1 5B2       0.151700
     23 H13          3.7050    -0.0010     3.3660 ha         1 5B2       0.110500
     24 H12          6.1670    -0.0010     3.3770 ha         1 5B2       0.101000
     25 H11          7.4130     0.0010     1.2510 ha         1 5B2       0.101000
     26 H10          6.2010    -0.0030    -0.8950 ha         1 5B2       0.101000
     27 H9           3.7380    -0.0070    -0.9240 ha         1 5B2       0.110500
@<TRIPOS>BOND
     1     1     2 ar  
     2     1     3 1   
     3     1     8 ar  
     4     2     5 ar  
     5     2    17 1   
     6     3     4 1   
     7     3    10 2   
     8     4    18 1   
     9     4    19 1   
    10     5     6 ar  
    11     5    11 1   
    12     6     7 ar  
    13     6    20 1   
    14     7     8 ar  
    15     7    21 1   
    16     8     9 1   
    17     9    10 1   
    18     9    22 1   
    19    11    12 ar  
    20    11    16 ar  
    21    12    13 ar  
    22    12    23 1   
    23    13    14 ar  
    24    13    24 1   
    25    14    15 ar  
    26    14    25 1   
    27    15    16 ar  
    28    15    26 1   
    29    16    27 1   
@<TRIPOS>SUBSTRUCTURE
     1 5B2         1 TEMP              0 ****  ****    0 ROOT
