@<TRIPOS>MOLECULE
molecule
   27    29     1     0     0
SMALL
bcc


@<TRIPOS>ATOM
      1 C7           0.0000     0.0000     0.0000 ca         1 5B2      -0.259900
      2 C6           1.3950     0.0000     0.0000 ca         1 5B2      -0.037000
      3 C1          -1.0150     0.0010    -1.0560 cc         1 5B2       0.604800
      4 N1          -0.7750     0.0020    -2.4320 nv         1 5B2      -1.016800
      5 C5           2.0770     0.0000     1.2080 cp         1 5B2      -0.085000
      6 C4           1.3690    -0.0010     2.4160 ca         1 5B2      -0.073000
      7 C3           0.0060    -0.0000     2.4230 ca         1 5B2      -0.162000
      8 C2          -0.7010     0.0060     1.2220 ca         1 5B2      -0.016200
      9 N3          -2.0370     0.0050     0.9120 na         1 5B2      -0.050100
     10 N2          -2.1870     0.0010    -0.4780 nd         1 5B2      -0.519100
     11 C8           3.5610    -0.0010     1.2200 cp         1 5B2      -0.022000
     12 C13          4.2510    -0.0010     2.4310 ca         1 5B2      -0.126000
     13 C12          5.6300    -0.0010     2.4360 ca         1 5B2      -0.124000
     14 C11          6.3290    -0.0010     1.2420 ca         1 5B2      -0.132000
     15 C10          5.6490    -0.0010     0.0370 ca         1 5B2      -0.124000
     16 C9           4.2690    -0.0070     0.0210 ca         1 5B2      -0.126000
     17 H6           1.9420     0.0010    -0.9360 ha         1 5B2       0.140000
     18 HN1         -0.7060     0.8680    -2.9280 hn         1 5B2       0.439800
     19 HN1A        -0.7070    -0.8650    -2.9280 hn         1 5B2       0.439800
     20 H4           1.9100    -0.0010     3.3540 ha         1 5B2       0.136000
     21 H3          -0.5290    -0.0010     3.3650 ha         1 5B2       0.130000
     22 HN3         -2.7850     0.0060     1.5760 hn         1 5B2       0.333700
     23 H13          3.7050    -0.0010     3.3660 ha         1 5B2       0.131500
     24 H12          6.1670    -0.0010     3.3770 ha         1 5B2       0.129000
     25 H11          7.4130     0.0010     1.2510 ha         1 5B2       0.128000
     26 H10          6.2010    -0.0030    -0.8950 ha         1 5B2       0.129000
     27 H9           3.7380    -0.0070    -0.9240 ha         1 5B2       0.131500
@<TRIPOS>BOND
     1     1     2 ar  
     2     1     3 1   
     3     1     8 ar  
     4     2     5 ar  
     5     3     4 1   
     6     3    10 2   
     7     5     6 ar  
     8     5    11 1   
     9     6     7 ar  
    10     7     8 ar  
    11     8     9 1   
    12     9    10 1   
    13    11    12 ar  
    14    11    16 ar  
    15    12    13 ar  
    16    13    14 ar  
    17    14    15 ar  
    18    15    16 ar  
    19     2    17 1   
    20     4    18 1   
    21     4    19 1   
    22     6    20 1   
    23     7    21 1   
    24     9    22 1   
    25    12    23 1   
    26    13    24 1   
    27    14    25 1   
    28    15    26 1   
    29    16    27 1   
@<TRIPOS>SUBSTRUCTURE
     1 5B2         1 TEMP              0 ****  ****    0 ROOT
