@<TRIPOS>MOLECULE
molecule
   44    46     1     0     0
SMALL
bcc


@<TRIPOS>ATOM
      1 O1           0.0000     0.0000     0.0000 o          1 5B3      -0.640800
      2 C7           1.5380     2.9640    -2.7080 ca         1 5B3      -0.155000
      3 O2           2.1990     0.0000     1.1900 o          1 5B3      -0.640800
      4 C6           1.1530     1.8530    -1.9850 ca         1 5B3      -0.023500
      5 C1           3.9270    -1.9890     0.3170 c3         1 5B3      -0.108100
      6 N1           1.8890    -1.3320    -0.8650 n7         1 5B3      -0.908100
      7 C5           1.9180     1.4200    -0.9180 ca         1 5B3      -0.319500
      8 C4           4.0240    -0.4040    -1.6120 c3         1 5B3      -0.108100
      9 C3           3.4730    -2.8100    -1.9990 c3         1 5B3      -0.108100
     10 C2           3.3130    -1.6300    -1.0380 c3         1 5B3       0.246200
     11 S1           1.4210     0.0000     0.0000 sy         1 5B3       1.427200
     12 C10          3.0740     2.0960    -0.5690 ca         1 5B3      -0.023500
     13 C9           3.4680     3.2080    -1.2850 ca         1 5B3      -0.155000
     14 C8           2.7010     3.6490    -2.3610 cp         1 5B3       0.037000
     15 C11          3.1200     4.8440    -3.1350 cp         1 5B3      -0.104000
     16 C17          4.2780     5.5220    -2.7850 ca         1 5B3      -0.026000
     17 C16          4.6640     6.6450    -3.5210 ca         1 5B3      -0.263900
     18 C15          5.7900     7.5750    -3.4350 cc         1 5B3       0.607800
     19 N4           6.8290     7.5300    -2.5010 nv         1 5B3      -1.016800
     20 N3           5.6500     8.4550    -4.3910 nd         1 5B3      -0.517100
     21 N2           4.4930     8.1840    -5.1250 na         1 5B3      -0.046100
     22 C14          3.8760     7.0770    -4.6050 ca         1 5B3      -0.010200
     23 C13          2.7160     6.3780    -4.9380 ca         1 5B3      -0.161000
     24 C12          2.3480     5.2790    -4.2200 ca         1 5B3      -0.067000
     25 H7           0.9370     3.3030    -3.5440 ha         1 5B3       0.138000
     26 H6           0.2490     1.3200    -2.2540 ha         1 5B3       0.150000
     27 H1           3.2030    -2.5350     0.9080 hc         1 5B3       0.047700
     28 H1A          4.8060    -2.6040     0.1640 hc         1 5B3       0.047700
     29 H1B          4.2080    -1.0810     0.8380 hc         1 5B3       0.047700
     30 HN1          1.1990    -1.9560    -1.2350 hn         1 5B3       0.453800
     31 H4           4.2720     0.2790    -0.8090 hc         1 5B3       0.047700
     32 H4A          3.3720     0.0930    -2.3200 hc         1 5B3       0.047700
     33 H4B          4.9320    -0.7150    -2.1140 hc         1 5B3       0.047700
     34 H3           3.0220    -2.5630    -2.9530 hc         1 5B3       0.047700
     35 H3A          4.5260    -3.0190    -2.1420 hc         1 5B3       0.047700
     36 H3B          2.9850    -3.6830    -1.5840 hc         1 5B3       0.047700
     37 H10          3.6700     1.7530     0.2680 ha         1 5B3       0.150000
     38 H9           4.3730     3.7370    -1.0120 ha         1 5B3       0.138000
     39 H17          4.7980     5.2700    -1.8690 ha         1 5B3       0.141000
     40 HN4          7.6730     7.0350    -2.7150 hn         1 5B3       0.440800
     41 HN4A         6.7460     8.0260    -1.6360 hn         1 5B3       0.440800
     42 HN2          4.1670     8.7140    -5.9090 hn         1 5B3       0.335700
     43 H13          2.1100     6.7040    -5.7750 ha         1 5B3       0.133000
     44 H12          1.4500     4.7370    -4.4910 ha         1 5B3       0.138000
@<TRIPOS>BOND
     1     1    11 2
     2     2     4 ar
     3     2    14 ar
     4     3    11 2
     5     4     7 ar
     6     5    10 1
     7     6    10 1
     8     6    11 1
     9     7    11 1
    10     7    12 ar
    11     8    10 1
    12     9    10 1
    13    12    13 ar
    14    13    14 ar
    15    14    15 1
    16    15    16 ar
    17    15    24 ar
    18    16    17 ar
    19    17    18 1
    20    17    22 ar
    21    18    19 1
    22    18    20 2
    23    20    21 1
    24    21    22 1
    25    22    23 ar
    26    23    24 ar
    27     2    25 1
    28     4    26 1
    29     5    27 1
    30     5    28 1
    31     5    29 1
    32     6    30 1
    33     8    31 1
    34     8    32 1
    35     8    33 1
    36     9    34 1
    37     9    35 1
    38     9    36 1
    39    12    37 1
    40    13    38 1
    41    16    39 1
    42    19    40 1
    43    19    41 1
    44    21    42 1
    45    23    43 1
    46    24    44 1
@<TRIPOS>SUBSTRUCTURE
     1 5B3         1 TEMP              0 ****  ****    0 ROOT
