@<TRIPOS>MOLECULE
5B4
   57    61     1     0     0
SMALL
bcc


@<TRIPOS>ATOM
      1 C1           0.0000     0.0000     0.0000 ca         1 5B4       0.088900
      2 C2           1.3890     0.0000     0.0000 ca         1 5B4       0.137100
      3 C3           2.0830     0.0000     1.2000 ca         1 5B4      -0.195000
      4 C4           1.3920     0.0000     2.3990 ca         1 5B4       0.104900
      5 C5           0.0020     0.0010     2.4000 ca         1 5B4      -0.129400
      6 O9           2.0680    -0.0020    -1.1780 os         1 5B4      -0.201200
      7 C10          3.4240     0.0570    -1.1310 ca         1 5B4       0.136100
      8 C11          4.1780    -1.0790    -0.8620 ca         1 5B4      -0.256300
      9 C12          5.5640    -0.9760    -0.8240 ca         1 5B4       0.520800
     10 C14          5.4730     1.2830    -1.3060 ca         1 5B4       0.430200
     11 C16          6.3840    -2.1790    -0.5370 cc         1 5B4      -0.404800
     12 C15          4.0940     1.2580    -1.3590 ca         1 5B4      -0.253300
     13 C34         -3.3740     5.5400     6.5350 ca         1 5B4       0.094900
     14 C33         -4.3330     4.6620     6.0630 ca         1 5B4      -0.113500
     15 C32         -3.9640     3.4070     5.6210 ca         1 5B4      -0.092000
     16 C35         -2.0400     5.1660     6.5590 ca         1 5B4      -0.113500
     17 C36         -1.6670     3.9110     6.1170 ca         1 5B4      -0.092000
     18 C31         -2.6290     3.0260     5.6490 ca         1 5B4      -0.104400
     19 N30         -2.2520     1.7550     5.2000 ns         1 5B4      -0.058100
     20 C26         -3.0610     0.6980     5.4140 c          1 5B4       0.613100
     21 O27         -4.1500     0.8610     5.9200 o          1 5B4      -0.618100
     22 C25         -2.6110    -0.6870     5.0230 cx         1 5B4      -0.338000
     23 C29         -3.5550    -1.8500     5.3330 cx         1 5B4      -0.017400
     24 C28         -2.2760    -1.6650     6.1510 cx         1 5B4      -0.017400
     25 C23         -1.7920    -0.7720     3.7620 c          1 5B4       0.606100
     26 O24         -2.1170    -1.5380     2.8780 o          1 5B4      -0.604100
     27 N22         -0.6990     0.0030     3.6140 ns         1 5B4      -0.055100
     28 C6          -0.6920     0.0070     1.1960 ca         1 5B4      -0.069000
     29 F7          -0.6760    -0.0000    -1.1710 f          1 5B4      -0.112900
     30 F8           2.0680     0.0000     3.5680 f          1 5B4      -0.123900
     31 N13          6.1610     0.1890    -1.0420 nb         1 5B4      -0.596000
     32 C20          7.7460    -2.2300    -0.4690 cd         1 5B4      -0.201300
     33 N19          8.0920    -3.5010    -0.1880 na         1 5B4       0.494400
     34 C21          9.4600    -4.0020    -0.0240 c3         1 5B4       0.021600
     35 N18          6.9220    -4.2610    -0.0790 nd         1 5B4      -0.648800
     36 C17          5.8970    -3.4770    -0.2810 cc         1 5B4       0.413200
     37 H1           3.1660    -0.0000     1.1990 ha         1 5B4       0.149000
     38 H2           3.7070    -2.0550    -0.8670 ha         1 5B4       0.136000
     39 H3           5.9970     2.2150    -1.4800 h4         1 5B4      -0.017900
     40 H4           3.5390     2.1630    -1.5770 ha         1 5B4       0.127000
     41 H5          -5.3750     4.9580     6.0410 ha         1 5B4       0.121000
     42 H6          -4.7150     2.7180     5.2530 ha         1 5B4       0.127500
     43 H7          -1.2900     5.8570     6.9250 ha         1 5B4       0.121000
     44 H8          -0.6250     3.6170     6.1380 ha         1 5B4       0.127500
     45 H9          -1.3670     1.6250     4.7500 hn         1 5B4       0.175500
     46 H10         -3.5400    -2.6660     4.6210 hc         1 5B4       0.060950
     47 H11         -4.4750    -1.5830     5.8380 hc         1 5B4       0.060950
     48 H12         -1.4790    -2.3680     5.9390 hc         1 5B4       0.060950
     49 H13         -2.4140    -1.2850     7.1560 hc         1 5B4       0.060950
     50 H14         -0.3190     0.4820     4.4060 hn         1 5B4       0.181500
     51 H15         -1.7750     0.0070     1.1960 ha         1 5B4       0.151000
     52 H16          8.4270    -1.4240    -0.7160 h4         1 5B4       0.160000
     53 H17         10.0110    -3.8560    -0.9450 h1         1 5B4       0.023700
     54 H18          9.4310    -5.0580     0.2170 h1         1 5B4       0.023700
     55 H19          9.9490    -3.4620     0.7780 h1         1 5B4       0.023700
     56 H20          4.8560    -3.7740    -0.2620 h4         1 5B4       0.007100
     57 F37         -3.7370     6.7680     6.9680 f          1 5B4      -0.127900
@<TRIPOS>BOND
     1     1     2 ar  
     2     1    28 ar  
     3     1    29 1   
     4     2     3 ar  
     5     2     6 1   
     6     3     4 ar  
     7     3    37 1   
     8     4     5 ar  
     9     4    30 1   
    10     5    27 1   
    11     5    28 ar  
    12     6     7 1   
    13     7     8 ar  
    14     7    12 ar  
    15     8     9 ar  
    16     8    38 1   
    17     9    11 1   
    18     9    31 ar  
    19    10    12 ar  
    20    10    31 ar  
    21    10    39 1   
    22    11    32 2   
    23    11    36 1   
    24    12    40 1   
    25    13    14 ar  
    26    13    16 ar  
    27    13    57 1   
    28    14    15 ar  
    29    14    41 1   
    30    15    18 ar  
    31    15    42 1   
    32    16    17 ar  
    33    16    43 1   
    34    17    18 ar  
    35    17    44 1   
    36    18    19 1   
    37    19    20 1   
    38    19    45 1   
    39    20    21 2   
    40    20    22 1   
    41    22    23 1   
    42    22    24 1   
    43    22    25 1   
    44    23    24 1   
    45    23    46 1   
    46    23    47 1   
    47    24    48 1   
    48    24    49 1   
    49    25    26 2   
    50    25    27 1   
    51    27    50 1   
    52    28    51 1   
    53    32    33 1   
    54    32    52 1   
    55    33    34 1   
    56    33    35 1   
    57    34    53 1   
    58    34    54 1   
    59    34    55 1   
    60    35    36 2   
    61    36    56 1   
@<TRIPOS>SUBSTRUCTURE
     1 5B4         1 TEMP              0 ****  ****    0 ROOT
