@<TRIPOS>MOLECULE
molecule
   88    91     1     0     0
SMALL
bcc


@<TRIPOS>ATOM
      1 C2           0.0000     0.0000     0.0000 ca         1 5B5       0.194100
      2 C3           1.3880     0.0000     0.0000 ca         1 5B5      -0.214000
      3 C4           2.0760     0.0000     1.1980 ca         1 5B5       0.008500
      4 C5           1.3850     0.0000     2.3950 ca         1 5B5      -0.356500
      5 C6           0.0020    -0.0000     2.3980 ca         1 5B5       0.008500
      6 C7          -0.6910    -0.0000     1.2030 ca         1 5B5      -0.214000
      7 S8           2.2670     0.0000     3.9200 sy         1 5B5       1.426200
      8 O9           1.4470    -0.6840     4.8570 o          1 5B5      -0.640800
      9 O10          3.5970    -0.3970     3.6150 o          1 5B5      -0.640800
     10 N11          2.3560     1.5710     4.4350 n3         1 5B5      -0.813500
     11 C12          3.5470     2.3730     4.1420 c3         1 5B5       0.230800
     12 C13          3.1730     3.5140     3.1940 c3         1 5B5      -0.096700
     13 C14          4.3970     4.3990     2.9540 c3         1 5B5      -0.091600
     14 C15          2.6940     2.9340     1.8610 c3         1 5B5      -0.091600
     15 C16          1.2430     2.1600     5.1840 c3         1 5B5       0.237800
     16 C17          1.5160     2.0370     6.6850 c3         1 5B5       0.107100
     17 O18          2.6600     2.8220     7.0270 oh         1 5B5      -0.606800
     18 C19          0.3010     2.5370     7.4680 c3         1 5B5       0.115700
     19 N20          0.5140     2.3080     8.8990 ns         1 5B5      -0.566900
     20 C21         -0.5430     2.1840     9.7260 c          1 5B5       0.744100
     21 O22         -1.6730     2.2620     9.2850 o          1 5B5      -0.604000
     22 O23         -0.3480     1.9740    11.0420 os         1 5B5      -0.419900
     23 C24         -1.5320     1.8500    11.8720 c3         1 5B5       0.181100
     24 C25         -3.1570     0.2700    12.8760 c3         1 5B5       0.152400
     25 O26         -2.7580     0.7100    14.1720 os         1 5B5      -0.445600
     26 C27         -2.3510     2.0750    14.2680 c3         1 5B5       0.343900
     27 O28         -1.6650     2.2060    15.5430 os         1 5B5      -0.391600
     28 C29         -0.3810     1.5750    15.3820 c3         1 5B5       0.091400
     29 C30         -0.0080     1.6770    13.8870 c3         1 5B5       0.146500
     30 C31         -1.2260     2.3800    13.2570 c3         1 5B5      -0.127700
     31 C32          0.1120     4.0340     7.2130 c3         1 5B5      -0.035100
     32 C33         -1.6700     4.8680     9.1530 ca         1 5B5      -0.119500
     33 C34         -2.8700     5.2680     9.7140 ca         1 5B5      -0.123000
     34 C35         -4.0340     5.2150     8.9710 ca         1 5B5      -0.139000
     35 C36         -3.9980     4.7610     7.6650 ca         1 5B5      -0.123000
     36 C37         -2.8010     4.3610     7.1030 ca         1 5B5      -0.119500
     37 C38         -1.6360     4.4150     7.8480 ca         1 5B5      -0.056300
     38 O39         -0.6800     0.0050    -1.1760 os         1 5B5      -0.322900
     39 C40         -2.1070     0.0050    -1.1010 c3         1 5B5       0.125700
     40 C51         -1.9530     0.3800    11.9340 c3         1 5B5      -0.145400
     41 N52          1.2050     2.4880    13.7110 n7         1 5B5      -0.804200
     42 C53          2.4120     1.6630    13.8460 c3         1 5B5       0.153800
     43 C54          3.6520     2.5410    13.6570 c3         1 5B5      -0.094100
     44 H1           1.9300     0.0000    -0.9380 ha         1 5B5       0.146500
     45 H2           3.1600     0.0000     1.1980 ha         1 5B5       0.151000
     46 H3          -0.5370    -0.0000     3.3370 ha         1 5B5       0.151000
     47 H4          -1.7740    -0.0000     1.2060 ha         1 5B5       0.146500
     48 H5           4.2980     1.7470     3.6750 h1         1 5B5       0.070700
     49 H6           3.9420     2.7840     5.0630 h1         1 5B5       0.070700
     50 H7           2.3810     4.1060     3.6360 hc         1 5B5       0.054700
     51 H8           5.1460     3.8400     2.4070 hc         1 5B5       0.036867
     52 H9           4.1060     5.2700     2.3800 hc         1 5B5       0.036867
     53 H10          4.8060     4.7150     3.9060 hc         1 5B5       0.036867
     54 H11          3.3250     2.0990     1.5830 hc         1 5B5       0.036867
     55 H12          1.6700     2.5960     1.9620 hc         1 5B5       0.036867
     56 H13          2.7480     3.6980     1.0950 hc         1 5B5       0.036867
     57 H14          1.1440     3.2060     4.9200 h1         1 5B5       0.065200
     58 H15          0.3270     1.6370     4.9400 h1         1 5B5       0.065200
     59 H16          1.7030     0.9990     6.9340 h1         1 5B5       0.064700
     60 H17          3.2560     2.3020     7.5400 ho         1 5B5       0.406000
     61 H18         -0.5830     2.0010     7.1440 h1         1 5B5       0.091700
     62 H19          1.4440     2.2180     9.2580 hn         1 5B5       0.322500
     63 H20         -2.3380     2.4310    11.4410 h1         1 5B5       0.078700
     64 H21         -3.9620     0.8960    12.5120 h1         1 5B5       0.054700
     65 H22         -3.4860    -0.7610    12.9280 h1         1 5B5       0.054700
     66 H23         -3.1830     2.7630    14.1790 h2         1 5B5       0.088700
     67 H24          0.3600     2.0900    15.9820 h1         1 5B5       0.053700
     68 H25         -0.4420     0.5340    15.6750 h1         1 5B5       0.053700
     69 H26          0.1210     0.6900    13.4610 h1         1 5B5       0.081700
     70 H27         -1.0520     3.4490    13.2120 hc         1 5B5       0.087700
     71 H28          0.9570     4.5790     7.6160 hc         1 5B5       0.060700
     72 H29          0.0420     4.2130     6.1470 hc         1 5B5       0.060700
     73 H31         -2.8970     5.6230    10.7370 ha         1 5B5       0.123500
     74 H32         -4.9730     5.5280     9.4110 ha         1 5B5       0.124000
     75 H33         -4.9100     4.7190     7.0820 ha         1 5B5       0.123500
     76 H34         -2.7740     4.0060     6.0800 ha         1 5B5       0.124500
     77 H35         -2.4420     0.8970    -0.5840 h1         1 5B5       0.046367
     78 H36         -2.5220    -0.0100    -2.1010 h1         1 5B5       0.046367
     79 H37         -2.4400    -0.8720    -0.5590 h1         1 5B5       0.046367
     80 H38         -1.1340    -0.2180    12.3170 hc         1 5B5       0.067700
     81 H39         -2.2310     0.0380    10.9450 hc         1 5B5       0.067700
     82 H40          1.2200     3.2180    14.3950 hn         1 5B5       0.356800
     83 H42          2.4350     1.2150    14.8320 h1         1 5B5       0.031700
     84 H43          2.4040     0.8840    13.0950 h1         1 5B5       0.031700
     85 H44          3.5450     3.1260    12.7520 hc         1 5B5       0.039367
     86 H45          4.5300     1.9120    13.5790 hc         1 5B5       0.039367
     87 H46          3.7570     3.2050    14.5060 hc         1 5B5       0.039367
     88 H30         -0.7590     4.9100     9.7360 ha         1 5B5       0.124500
@<TRIPOS>BOND
     1    34    35 ar  
     2    34    33 ar  
     3    35    36 ar  
     4    43    42 1   
     5    33    32 ar  
     6    36    37 ar  
     7    38     1 1   
     8    38    39 1   
     9     6     1 ar  
    10     6     5 ar  
    11    42    41 1   
    12    32    37 ar  
    13     1     2 ar  
    14    37    31 1   
    15     5     4 ar  
    16     8     7 2   
    17     2     3 ar  
    18     4     3 ar  
    19     4     7 1   
    20    31    18 1   
    21    41    29 1   
    22     7     9 2   
    23     7    10 1   
    24    29    28 1   
    25    29    30 1   
    26    18    19 1   
    27    18    16 1   
    28    28    27 1   
    29    21    20 2   
    30    10    15 1   
    31    10    11 1   
    32    15    16 1   
    33    19    20 1   
    34    20    22 1   
    35    16    17 1   
    36    30    23 1   
    37    30    26 1   
    38    22    23 1   
    39    23    40 1   
    40    27    26 1   
    41    11    12 1   
    42    26    25 1   
    43    13    12 1   
    44    12    14 1   
    45    40    24 1   
    46    25    24 1   
    47     2    44 1   
    48     3    45 1   
    49     5    46 1   
    50     6    47 1   
    51    11    48 1   
    52    11    49 1   
    53    12    50 1   
    54    13    51 1   
    55    13    52 1   
    56    13    53 1   
    57    14    54 1   
    58    14    55 1   
    59    14    56 1   
    60    15    57 1   
    61    15    58 1   
    62    16    59 1   
    63    17    60 1   
    64    18    61 1   
    65    19    62 1   
    66    23    63 1   
    67    24    64 1   
    68    24    65 1   
    69    26    66 1   
    70    28    67 1   
    71    28    68 1   
    72    29    69 1   
    73    30    70 1   
    74    31    71 1   
    75    31    72 1   
    76    32    88 1   
    77    33    73 1   
    78    34    74 1   
    79    35    75 1   
    80    36    76 1   
    81    39    77 1   
    82    39    78 1   
    83    39    79 1   
    84    40    80 1   
    85    40    81 1   
    86    41    82 1   
    87    42    83 1   
    88    42    84 1   
    89    43    85 1   
    90    43    86 1   
    91    43    87 1   
@<TRIPOS>SUBSTRUCTURE
     1 5B5         1 TEMP              0 ****  ****    0 ROOT
