@<TRIPOS>MOLECULE
5B5
   91    93     1     0     0
SMALL
bcc


@<TRIPOS>ATOM
      1 C2          0.6450   -1.3940   -0.0670 ca        1 5B5      0.321100
      2 C3          1.6840   -1.3660    0.9190 ca        1 5B5     -0.209500
      3 C4          1.4160   -0.8960    2.1700 ca        1 5B5      0.061500
      4 C5          0.1160   -0.4180    2.5570 ca        1 5B5     -0.712500
      5 C6         -0.8930   -0.4480    1.5370 ca        1 5B5      0.061500
      6 C7         -0.6520   -0.9160    0.2750 ca        1 5B5     -0.209500
      7 S8         -0.1870    0.0340    3.9720 s4        1 5B5      1.700300
      8 O9         -1.4580    0.3740    4.3190 o         1 5B5     -0.469400
      9 O10         0.7530   -0.1110    4.9550 o         1 5B5     -0.469400
     10 N11         0.4150    2.4610    3.8940 n3        1 5B5     -0.905200
     11 C12         1.7830    2.5590    3.3780 c3        1 5B5      0.116800
     12 C13         2.1210    3.8160    2.5660 c3        1 5B5     -0.085700
     13 C14         3.6020    3.8000    2.2410 c3        1 5B5     -0.102600
     14 C15         1.3020    3.8990    1.2970 c3        1 5B5     -0.102600
     15 C16         0.1860    3.2810    5.0860 c3        1 5B5      0.114800
     16 C17         0.4160    2.5450    6.4230 c3        1 5B5      0.123100
     17 O18         1.7770    2.1990    6.6130 oh        1 5B5     -0.628800
     18 C19         0.0260    3.4760    7.6090 c3        1 5B5      0.150500
     19 N20         0.4690    2.8620    8.9310 n4        1 5B5     -0.639800
     20 C21        -0.5080    1.8890    9.4770 c         1 5B5      0.619100
     21 O22        -1.3000    1.2690    8.7800 o         1 5B5     -0.415000
     22 O23        -0.4280    1.7700   10.8300 os        1 5B5     -0.438900
     23 C24        -1.2800    0.7100   11.3990 c3        1 5B5      0.166100
     24 C25        -1.5390   -1.7030   11.7930 c3        1 5B5      0.132400
     25 O26        -1.5890   -1.4830   13.1930 os        1 5B5     -0.399600
     26 C27        -2.1190   -0.2380   13.5960 c3        1 5B5      0.335900
     27 O28        -1.6470   -0.1610   14.9330 os        1 5B5     -0.351600
     28 C29        -0.2780    0.2340   14.8790 c3        1 5B5      0.105400
     29 C30        -0.2140    1.2960   13.7340 c3        1 5B5      0.090500
     30 C31        -1.4770    1.0060   12.8770 c3        1 5B5     -0.159700
     31 C32         0.6310    4.8800    7.4750 c3        1 5B5     -0.060100
     32 C33         1.5090    5.9610    9.5550 ca        1 5B5     -0.133000
     33 C34         1.3580    6.8370   10.6290 ca        1 5B5     -0.117500
     34 C35         0.1360    7.4760   10.8450 ca        1 5B5     -0.097000
     35 C36        -0.9390    7.2340    9.9870 ca        1 5B5     -0.117500
     36 C37        -0.7900    6.3610    8.9100 ca        1 5B5     -0.133000
     37 C38         0.4350    5.7210    8.6870 ca        1 5B5     -0.180300
     38 O39         0.9980   -1.8820   -1.2590 os        1 5B5     -0.249900
     39 C40         0.0070   -1.9630   -2.3040 c3        1 5B5      0.095700
     40 C51        -0.6610   -0.6490   11.1310 c3        1 5B5     -0.155400
     41 N52        -0.2220    2.6870   14.2980 n4        1 5B5     -0.767000
     42 C53         1.0990    3.0720   14.8990 c3        1 5B5      0.111800
     43 C54         1.0430    4.4170   15.5910 c3        1 5B5     -0.144100
     44 H1          2.6860   -1.7390    0.6370 ha        1 5B5      0.199500
     45 H2          2.2200   -0.8890    2.9320 ha        1 5B5      0.172000
     46 H3         -1.9090   -0.0860    1.7970 ha        1 5B5      0.172000
     47 H4         -1.4580   -0.9320   -0.4800 ha        1 5B5      0.199500
     48 H5          2.5020    2.4860    4.2440 h1        1 5B5      0.065200
     49 H6          1.9390    1.6570    2.7160 h1        1 5B5      0.065200
     50 H7          1.9060    4.7270    3.1940 hc        1 5B5      0.056700
     51 H8          3.8590    2.9180    1.6070 hc        1 5B5      0.052200
     52 H9          3.8770    4.7270    1.6790 hc        1 5B5      0.052200
     53 H10         4.2120    3.7610    3.1750 hc        1 5B5      0.052200
     54 H11         1.6540    4.7610    0.6750 hc        1 5B5      0.052200
     55 H12         0.2190    4.0600    1.5170 hc        1 5B5      0.052200
     56 H13         1.4130    2.9680    0.6910 hc        1 5B5      0.052200
     57 H14         0.8620    4.1860    5.0610 h1        1 5B5      0.085700
     58 H15        -0.8850    3.6340    5.0810 h1        1 5B5      0.085700
     59 H16        -0.2320    1.6190    6.4710 h1        1 5B5      0.073700
     60 H17         1.9580    1.4020    6.0890 ho        1 5B5      0.465000
     61 H18        -1.1020    3.5490    7.6410 hx        1 5B5      0.121700
     62 H19         0.6250    3.6250    9.6150 hn        1 5B5      0.492800
     63 H20        -2.2870    0.7800   10.8880 h1        1 5B5      0.111700
     64 H21        -1.0860   -2.7290   11.6990 h1        1 5B5      0.096200
     65 H22        -2.5730   -1.7010   11.3580 h1        1 5B5      0.096200
     66 H23        -3.2390   -0.2350   13.6120 h2        1 5B5      0.140700
     67 H24         0.3670   -0.6410   14.6050 h1        1 5B5      0.112200
     68 H25        -0.0260    0.6030   15.9050 h1        1 5B5      0.112200
     69 H26         0.7230    1.1780   13.1240 hx        1 5B5      0.115700
     70 H27        -2.2160    1.8500   12.9620 hc        1 5B5      0.090700
     71 H28         0.1160    5.3780    6.6050 hc        1 5B5      0.104200
     72 H29         1.7240    4.7950    7.2210 hc        1 5B5      0.104200
     73 H32         0.0290    8.1980   11.6720 ha        1 5B5      0.168000
     74 H33        -1.8970    7.7580   10.1410 ha        1 5B5      0.164500
     75 H34        -1.6300    6.2070    8.2140 ha        1 5B5      0.142500
     76 H35         0.5930   -2.4110   -3.1510 h1        1 5B5      0.090367
     77 H36        -0.3580   -0.9400   -2.5610 h1        1 5B5      0.090367
     78 H37        -0.8260   -2.6360   -1.9870 h1        1 5B5      0.090367
     79 H38         0.3790   -0.6990   11.5450 hc        1 5B5      0.082700
     80 H39        -0.6140   -0.8400   10.0270 hc        1 5B5      0.082700
     81 H40        -0.4670    3.3570   13.5640 hn        1 5B5      0.453300
     82 H42         1.8600    3.0860   14.0680 hx        1 5B5      0.107200
     83 H43         1.3890    2.2690   15.6380 hx        1 5B5      0.107200
     84 H44         2.0600    4.6280   16.0160 hc        1 5B5      0.090033
     85 H45         0.7840    5.2410   14.8840 hc        1 5B5      0.090033
     86 H46         0.3140    4.4210   16.4400 hc        1 5B5      0.090033
     87 H30         2.4950    5.5120    9.3540 ha        1 5B5      0.142500
     88 H111       -0.2200    2.7930    3.1790 hn        1 5B5      0.399800
     89 H202        1.3670    2.3710    8.7690 hn        1 5B5      0.492800
     90 H522       -0.9460    2.7400   15.0300 hn        1 5B5      0.453300
     91 H31         2.2180    7.0560   11.2820 ha        1 5B5      0.164500
@<TRIPOS>BOND
     1    1    2 ar  
     2    1    6 ar  
     3    1   38 1   
     4    2    3 ar  
     5    2   44 1   
     6    3    4 ar  
     7    3   45 1   
     8    4    5 ar  
     9    4    7 1   
    10    5    6 ar  
    11    5   46 1   
    12    6   47 1   
    13    7    8 1   
    14    7    9 1   
    15   10   11 1   
    16   10   15 1   
    17   10   88 1   
    18   11   12 1   
    19   11   48 1   
    20   11   49 1   
    21   12   13 1   
    22   12   14 1   
    23   12   50 1   
    24   13   51 1   
    25   13   52 1   
    26   13   53 1   
    27   14   54 1   
    28   14   55 1   
    29   14   56 1   
    30   15   16 1   
    31   15   57 1   
    32   15   58 1   
    33   16   17 1   
    34   16   18 1   
    35   16   59 1   
    36   17   60 1   
    37   18   19 1   
    38   18   31 1   
    39   18   61 1   
    40   19   20 1   
    41   19   62 1   
    42   19   89 1   
    43   20   21 2   
    44   20   22 1   
    45   22   23 1   
    46   23   30 1   
    47   23   40 1   
    48   23   63 1   
    49   24   25 1   
    50   24   40 1   
    51   24   64 1   
    52   24   65 1   
    53   25   26 1   
    54   26   27 1   
    55   26   30 1   
    56   26   66 1   
    57   27   28 1   
    58   28   29 1   
    59   28   67 1   
    60   28   68 1   
    61   29   30 1   
    62   29   41 1   
    63   29   69 1   
    64   30   70 1   
    65   31   37 1   
    66   31   71 1   
    67   31   72 1   
    68   32   33 ar  
    69   32   37 ar  
    70   32   87 1   
    71   33   34 ar  
    72   33   91 1   
    73   34   35 ar  
    74   34   73 1   
    75   35   36 ar  
    76   35   74 1   
    77   36   37 ar  
    78   36   75 1   
    79   38   39 1   
    80   39   76 1   
    81   39   77 1   
    82   39   78 1   
    83   40   79 1   
    84   40   80 1   
    85   41   42 1   
    86   41   81 1   
    87   41   90 1   
    88   42   43 1   
    89   42   82 1   
    90   42   83 1   
    91   43   84 1   
    92   43   85 1   
    93   43   86 1   
@<TRIPOS>SUBSTRUCTURE
     1 5B5         1 TEMP              0 ****  ****    0 ROOT
