@<TRIPOS>MOLECULE
molecule
   47    49     1     0     0
SMALL
bcc


@<TRIPOS>ATOM
      1 O3           0.0000     0.0000     0.0000 o          1 5B6      -0.901167
      2 P1           1.6110     0.0000     0.0000 p5         1 5B6       1.163900
      3 O4           2.1030     0.0000     1.3960 o          1 5B6      -0.901167
      4 O2           2.1470    -1.3140    -0.7590 o          1 5B6      -0.901167
      5 O5           2.1470     1.3140    -0.7580 os         1 5B6      -0.571200
      6 C9           3.5320     1.6570    -0.8350 c3         1 5B6       0.248700
      7 C8           3.6900     2.9400    -1.6110 ca         1 5B6      -0.148600
      8 C6           4.9480     3.4780    -1.8280 ca         1 5B6      -0.099300
      9 C5           5.0450     4.6640    -2.5490 ca         1 5B6      -0.024200
     10 O1           6.2590     5.2280    -2.7860 oh         1 5B6      -0.521100
     11 C3           3.8870     5.2610    -3.0230 ca         1 5B6       0.358600
     12 C4           3.9750     6.5450    -3.8060 c3         1 5B6      -0.125400
     13 N2           2.7070     4.7160    -2.7940 nb         1 5B6      -0.704000
     14 C10          2.5820     3.5900    -2.1200 ca         1 5B6       0.449200
     15 C7           6.1820     2.7960    -1.2940 c3         1 5B6       0.160100
     16 N1           6.4740     3.2970     0.0510 n2         1 5B6      -0.556900
     17 C1           6.4020     2.5010     1.0670 ce         1 5B6       0.342200
     18 C2           6.6970     3.0070     2.4240 ca         1 5B6       0.416000
     19 N3           7.0290     4.2820     2.5920 nb         1 5B6      -0.655000
     20 C11          7.3020     4.7770     3.7900 cp         1 5B6       0.359300
     21 C12          7.2470     3.9680     4.9240 ca         1 5B6      -0.245300
     22 C13          6.9030     2.6280     4.7880 ca         1 5B6       0.118100
     23 O6           6.8410     1.8120     5.8710 oh         1 5B6      -0.510100
     24 C14          6.6180     2.1430     3.5130 ca         1 5B6      -0.226300
     25 C15          7.6680     6.2090     3.9260 cp         1 5B6       0.387300
     26 N4           7.9460     6.7050     5.1240 nb         1 5B6      -0.696000
     27 C19          8.2760     7.9690     5.2880 ca         1 5B6       0.407200
     28 C18          8.3450     8.8310     4.2090 ca         1 5B6      -0.267300
     29 C17          8.0610     8.3530     2.9370 ca         1 5B6      -0.106000
     30 C16          7.7230     7.0180     2.7940 ca         1 5B6      -0.200300
     31 H3           4.0730     0.8630    -1.3370 h1         1 5B6       0.029700
     32 H4           3.9280     1.7880     0.1640 h1         1 5B6       0.029700
     33 H5           6.5980     4.9110    -3.6060 ho         1 5B6       0.393000
     34 H6           4.5130     7.2850    -3.2260 hc         1 5B6       0.034033
     35 H7           4.5000     6.3650    -4.7360 hc         1 5B6       0.034033
     36 H8           2.9770     6.9080    -4.0180 hc         1 5B6       0.034033
     37 H9           1.5950     3.1740    -1.9530 h4         1 5B6       0.084100
     38 H10          6.0140     1.7270    -1.2520 h1         1 5B6       0.050200
     39 H11          7.0210     3.0040    -1.9470 h1         1 5B6       0.050200
     40 H12          6.1270     1.4630     0.9230 h4         1 5B6       0.014800
     41 H13          7.4720     4.3790     5.9010 ha         1 5B6       0.156000
     42 H14          7.6840     1.4150     6.0140 ho         1 5B6       0.411000
     43 H15          6.3470     1.1040     3.3710 ha         1 5B6       0.174000
     44 H16          8.4970     8.3390     6.2820 h4         1 5B6       0.009100
     45 H17          8.6150     9.8690     4.3550 ha         1 5B6       0.122000
     46 H18          8.1100     9.0080     2.0760 ha         1 5B6       0.134000
     47 H19          7.4950     6.6100     1.8160 ha         1 5B6       0.185000
@<TRIPOS>BOND
     1     3     2 1
     2     1     2 1
     3     2     5 1
     4     2     4 1
     5    17    18 1
     6    17    16 2
     7    18    24 ar
     8    18    19 ar
     9    24    22 ar
    10    15    16 1
    11    15     8 1
    12    19    20 ar
    13     5     6 1
    14    22    23 1
    15    22    21 ar
    16    20    21 ar
    17    20    25 1
    18    26    25 ar
    19    26    27 ar
    20    10     9 1
    21    25    30 ar
    22    27    28 ar
    23     8     9 ar
    24     8     7 ar
    25     9    11 ar
    26    30    29 ar
    27    28    29 ar
    28     6     7 1
    29     7    14 ar
    30    11    12 1
    31    11    13 ar
    32    14    13 ar
    33     6    31 1
    34     6    32 1
    35    10    33 1
    36    12    34 1
    37    12    35 1
    38    12    36 1
    39    14    37 1
    40    15    38 1
    41    15    39 1
    42    17    40 1
    43    21    41 1
    44    23    42 1
    45    24    43 1
    46    27    44 1
    47    28    45 1
    48    29    46 1
    49    30    47 1
@<TRIPOS>SUBSTRUCTURE
     1 5B6         1 TEMP              0 ****  ****    0 ROOT
