@<TRIPOS>MOLECULE
5B6
   47    50     1     0     0
SMALL
bcc


@<TRIPOS>ATOM
      1 O3           0.0000     0.0000     0.0000 o          1 5B6      -0.686167
      2 P1           1.6110     0.0000     0.0000 p5         1 5B6       0.942500
      3 O4           2.1030     0.0000     1.3960 o          1 5B6      -0.686167
      4 O2           2.1470    -1.3140    -0.7590 o          1 5B6      -0.686167
      5 O5           2.1470     1.3140    -0.7580 os         1 5B6      -0.644000
      6 C9           3.5320     1.6570    -0.8350 c3         1 5B6       0.156000
      7 C8           3.6900     2.9400    -1.6110 c2         1 5B6      -0.062000
      8 C6           4.9480     3.4780    -1.8280 c2         1 5B6      -0.112000
      9 C5           5.0450     4.6640    -2.5490 c2         1 5B6       0.018000
     10 O1           6.2590     5.2280    -2.7860 oh         1 5B6      -0.250000
     11 C3           3.8870     5.2610    -3.0230 c2         1 5B6      -0.141000
     12 C4           3.9750     6.5450    -3.8060 c3         1 5B6      -0.044000
     13 N2           2.7070     4.7160    -2.7940 n2         1 5B6      -0.070000
     14 C10          2.5820     3.5900    -2.1200 c2         1 5B6      -0.060000
     15 C7           6.1820     2.7960    -1.2940 c3         1 5B6       0.010000
     16 N1           6.4740     3.2970     0.0510 n2         1 5B6      -0.056000
     17 C1           6.4020     2.5010     1.0670 c2         1 5B6      -0.288000
     18 C2           6.6970     3.0070     2.4240 c3         1 5B6      -0.124000
     19 N3           7.0290     4.2820     2.5920 n2         1 5B6      -0.047000
     20 C11          7.3020     4.7770     3.7900 c2         1 5B6      -0.033000
     21 C12          7.2470     3.9680     4.9240 c2         1 5B6      -0.199000
     22 C13          6.9030     2.6280     4.7880 c2         1 5B6       0.083000
     23 O6           6.8410     1.8120     5.8710 oh         1 5B6      -0.265000
     24 C14          6.6180     2.1430     3.5130 c2         1 5B6      -0.119000
     25 C15          7.6680     6.2090     3.9260 c2         1 5B6       0.018000
     26 N4           7.9460     6.7050     5.1240 n2         1 5B6      -0.057000
     27 C19          8.2760     7.9690     5.2880 c2         1 5B6      -0.079000
     28 C18          8.3450     8.8310     4.2090 c2         1 5B6      -0.186000
     29 C17          8.0610     8.3530     2.9370 c2         1 5B6      -0.082000
     30 C16          7.7230     7.0180     2.7940 c2         1 5B6      -0.116000
     31 H3           3.9280     1.7880     0.1640 h1         1 5B6       0.047500
     32 H4           4.0730     0.8630    -1.3370 h1         1 5B6       0.047500
     33 H5           6.5980     4.9110    -3.6070 ho         1 5B6       0.176000
     34 H6           4.5130     7.2850    -3.2250 hc         1 5B6       0.034667
     35 H7           4.5000     6.3650    -4.7360 hc         1 5B6       0.034667
     36 H8           2.9770     6.9080    -4.0180 hc         1 5B6       0.034667
     37 H9           1.5950     3.1740    -1.9530 h4         1 5B6       0.171000
     38 H10          6.0140     1.7270    -1.2520 h1         1 5B6       0.058000
     39 H11          7.0210     3.0040    -1.9470 h1         1 5B6       0.058000
     40 H12          7.4000     2.6680     1.4540 DU         1 5B6       0.267000
     41 H13          7.4720     4.3790     5.9010 ha         1 5B6       0.127000
     42 H14          5.9700     1.8340     6.2310 ho         1 5B6       0.207000
     43 H15          6.3470     1.1040     3.3710 ha         1 5B6       0.150000
     44 H16          8.4970     8.3390     6.2820 h4         1 5B6       0.101000
     45 H17          8.6150     9.8690     4.3550 ha         1 5B6       0.098000
     46 H18          8.1100     9.0080     2.0760 ha         1 5B6       0.102000
     47 H19          7.4950     6.6100     1.8160 ha         1 5B6       0.152000
@<TRIPOS>BOND
     1     1     2 1   
     2     2     3 1   
     3     2     4 1   
     4     2     5 1   
     5     5     6 1   
     6     6     7 1   
     7     6    31 1   
     8     6    32 1   
     9     7     8 1   
    10     7    14 1   
    11     8     9 1   
    12     8    15 1   
    13     9    10 1   
    14     9    11 1   
    15    10    33 1   
    16    11    12 1   
    17    11    13 1   
    18    12    34 1   
    19    12    35 1   
    20    12    36 1   
    21    13    14 1   
    22    14    37 1   
    23    15    16 1   
    24    15    38 1   
    25    15    39 1   
    26    16    17 1   
    27    17    18 1   
    28    17    40 1   
    29    18    19 1   
    30    18    24 1   
    31    18    40 1   
    32    19    20 1   
    33    20    21 1   
    34    20    25 1   
    35    21    22 1   
    36    21    41 1   
    37    22    23 1   
    38    22    24 1   
    39    23    42 1   
    40    24    43 1   
    41    25    26 1   
    42    25    30 1   
    43    26    27 1   
    44    27    28 1   
    45    27    44 1   
    46    28    29 1   
    47    28    45 1   
    48    29    30 1   
    49    29    46 1   
    50    30    47 1   
@<TRIPOS>SUBSTRUCTURE
     1 5B6         1 TEMP              0 ****  ****    0 ROOT
