@<TRIPOS>MOLECULE
5B7
   86    88     1     0     0
SMALL
bcc


@<TRIPOS>ATOM
      1 C2          0.7740    0.4460   -1.0430 ca        1 5B7      0.310100
      2 C3          0.9270   -0.6850   -0.1970 ca        1 5B7     -0.214000
      3 C4          0.5760   -0.5970    1.1250 ca        1 5B7      0.067000
      4 C5          0.0450    0.6020    1.6990 ca        1 5B7     -0.698500
      5 C6         -0.0790    1.7280    0.8190 ca        1 5B7      0.067000
      6 C7          0.2660    1.6670   -0.5020 ca        1 5B7     -0.214000
      7 S8         -0.4210    0.6650    3.1510 s4        1 5B7      1.693300
      8 O9         -1.0750    1.7720    3.5890 o         1 5B7     -0.440400
      9 O10        -0.3640   -0.4680    3.9000 o         1 5B7     -0.440400
     10 N11         1.5220    1.3880    4.7690 n3        1 5B7     -0.896200
     11 C12         2.8630    1.6140    4.2280 c3        1 5B7      0.126800
     12 C13         2.9150    2.4170    2.9190 c3        1 5B7     -0.068700
     13 C14         2.5430    3.8690    3.1120 c3        1 5B7     -0.103600
     14 C15         4.3190    2.3070    2.3540 c3        1 5B7     -0.103600
     15 C16         1.0550    2.4220    5.6810 c3        1 5B7      0.098800
     16 C17         1.3330    2.1770    7.1780 c3        1 5B7      0.098100
     17 O18         2.6750    2.4850    7.5190 oh        1 5B7     -0.610800
     18 C19         0.4450    3.1080    8.0440 c3        1 5B7      0.143500
     19 N20         0.7460    2.9060    9.5080 n4        1 5B7     -0.639800
     20 C21         0.1840    1.6310   10.0420 c         1 5B7      0.634100
     21 O22        -0.8390    1.1220    9.6060 o         1 5B7     -0.433000
     22 O23         0.9760    1.1110   11.0030 os        1 5B7     -0.404900
     23 C24         0.2650    0.3860   12.0720 c3        1 5B7      0.179100
     24 C25         1.3480   -0.3470   12.8440 c3        1 5B7     -0.126400
     25 O26         0.1800    0.1280   14.9220 os        1 5B7     -0.407600
     26 C27        -0.8860    0.8300   14.2990 c3        1 5B7      0.341900
     27 O28        -1.0400    1.9460   15.1560 os        1 5B7     -0.368600
     28 C29        -0.2630    3.0510   14.6700 c3        1 5B7      0.101400
     29 C30         0.2940    2.6630   13.2860 c3        1 5B7      0.118100
     30 C31        -0.4960    1.3940   12.9090 c3        1 5B7     -0.176700
     31 C32         0.6300    4.5830    7.6620 c3        1 5B7     -0.050100
     32 C33         0.5390    6.4950    9.2710 ca        1 5B7     -0.126000
     33 C34        -0.1820    7.4150   10.0330 ca        1 5B7     -0.116500
     34 C35        -1.5750    7.3540   10.0720 ca        1 5B7     -0.092000
     35 C36        -2.2500    6.3700    9.3460 ca        1 5B7     -0.116500
     36 C37        -1.5330    5.4520    8.5810 ca        1 5B7     -0.126000
     37 C38        -0.1330    5.5070    8.5420 ca        1 5B7     -0.174300
     38 O39         1.0730    0.4770   -2.3490 os        1 5B7     -0.260900
     39 C40         1.5690   -0.7220   -2.9730 c3        1 5B7      0.096700
     40 O41         0.0720    3.6390   12.2670 os        1 5B7     -0.483600
     41 C42         0.6520    4.9040   12.5690 c3        1 5B7      0.099700
     42 C44         0.7340   -0.9050   14.1230 c3        1 5B7      0.132400
     43 H1          1.3220   -1.6300   -0.6060 ha        1 5B7      0.194000
     44 H2          0.6910   -1.4850    1.7780 ha        1 5B7      0.174000
     45 H3         -0.4810    2.6740    1.2340 ha        1 5B7      0.174000
     46 H4          0.1560    2.5380   -1.1730 ha        1 5B7      0.194000
     47 H5          3.5220    2.1400    4.9790 h1        1 5B7      0.062200
     48 H6          3.3250    0.6020    4.0280 h1        1 5B7      0.062200
     49 H7          2.1990    1.9580    2.1790 hc        1 5B7      0.027700
     50 H8          3.1420    4.3270    3.9360 hc        1 5B7      0.050867
     51 H9          2.7510    4.4450    2.1760 hc        1 5B7      0.050867
     52 H10         1.4570    3.9780    3.3500 hc        1 5B7      0.050867
     53 H11         4.5910    1.2400    2.1690 hc        1 5B7      0.050867
     54 H12         4.3840    2.8620    1.3870 hc        1 5B7      0.050867
     55 H13         5.0630    2.7480    3.0610 hc        1 5B7      0.050867
     56 H14         1.5210    3.4110    5.3990 h1        1 5B7      0.097200
     57 H15        -0.0630    2.5060    5.5430 h1        1 5B7      0.097200
     58 H16         1.1050    1.1040    7.4500 h1        1 5B7      0.061700
     59 H17         3.2500    1.8420    7.0830 ho        1 5B7      0.438000
     60 H18        -0.6380    2.8110    7.8910 hx        1 5B7      0.128700
     61 H19         1.7670    2.9180    9.6530 hn        1 5B7      0.496300
     62 H20        -0.4440   -0.3370   11.5790 h1        1 5B7      0.094700
     63 H21         1.7660   -1.1810   12.2260 hc        1 5B7      0.081700
     64 H22         2.1860    0.3540   13.0950 hc        1 5B7      0.081700
     65 H23        -1.8350    0.2360   14.3190 h2        1 5B7      0.109700
     66 H24        -0.9630    3.9240   14.6200 h1        1 5B7      0.079700
     67 H25         0.5580    3.2380   15.4070 h1        1 5B7      0.079700
     68 H26         1.3970    2.4540   13.3450 h1        1 5B7      0.067700
     69 H27        -1.4320    1.6970   12.3660 hc        1 5B7      0.096700
     70 H28         1.7260    4.8350    7.6640 hc        1 5B7      0.091200
     71 H29         0.2570    4.6990    6.6060 hc        1 5B7      0.091200
     72 H32        -2.1440    8.0880   10.6650 ha        1 5B7      0.163000
     73 H33        -3.3510    6.3260    9.3680 ha        1 5B7      0.159000
     74 H34        -2.0730    4.6980    7.9880 ha        1 5B7      0.136500
     75 H35         2.5400   -1.0190   -2.5100 h1        1 5B7      0.084700
     76 H36         0.8080   -1.5350   -2.8970 h1        1 5B7      0.084700
     77 H37         1.7100   -0.3970   -4.0380 h1        1 5B7      0.084700
     78 H38         0.1940    5.3420   13.4880 h1        1 5B7      0.053367
     79 H39         1.7580    4.8010   12.7030 h1        1 5B7      0.053367
     80 H40         0.4130    5.5400   11.6770 h1        1 5B7      0.053367
     81 H41        -0.0480   -1.6730   13.8840 h1        1 5B7      0.078200
     82 H42         1.5290   -1.3580   14.7760 h1        1 5B7      0.078200
     83 H30         1.6370    6.5700    9.2230 ha        1 5B7      0.136500
     84 H111        1.5160    0.4980    5.2480 hn        1 5B7      0.381800
     85 H202        0.3270    3.6830   10.0620 hn        1 5B7      0.496300
     86 H31         0.3510    8.2010   10.5920 ha        1 5B7      0.159000
@<TRIPOS>BOND
     1    1    2 ar  
     2    1    6 ar  
     3    1   38 1   
     4    2    3 ar  
     5    2   43 1   
     6    3    4 ar  
     7    3   44 1   
     8    4    5 ar  
     9    4    7 1   
    10    5    6 ar  
    11    5   45 1   
    12    6   46 1   
    13    7    8 1   
    14    7    9 1   
    15   10   11 1   
    16   10   15 1   
    17   10   84 1   
    18   11   12 1   
    19   11   47 1   
    20   11   48 1   
    21   12   13 1   
    22   12   14 1   
    23   12   49 1   
    24   13   50 1   
    25   13   51 1   
    26   13   52 1   
    27   14   53 1   
    28   14   54 1   
    29   14   55 1   
    30   15   16 1   
    31   15   56 1   
    32   15   57 1   
    33   16   17 1   
    34   16   18 1   
    35   16   58 1   
    36   17   59 1   
    37   18   19 1   
    38   18   31 1   
    39   18   60 1   
    40   19   20 1   
    41   19   61 1   
    42   19   85 1   
    43   20   21 2   
    44   20   22 1   
    45   22   23 1   
    46   23   24 1   
    47   23   30 1   
    48   23   62 1   
    49   24   42 1   
    50   24   63 1   
    51   24   64 1   
    52   25   26 1   
    53   25   42 1   
    54   26   27 1   
    55   26   30 1   
    56   26   65 1   
    57   27   28 1   
    58   28   29 1   
    59   28   66 1   
    60   28   67 1   
    61   29   30 1   
    62   29   40 1   
    63   29   68 1   
    64   30   69 1   
    65   31   37 1   
    66   31   70 1   
    67   31   71 1   
    68   32   33 ar  
    69   32   37 ar  
    70   32   83 1   
    71   33   34 ar  
    72   33   86 1   
    73   34   35 ar  
    74   34   72 1   
    75   35   36 ar  
    76   35   73 1   
    77   36   37 ar  
    78   36   74 1   
    79   38   39 1   
    80   39   75 1   
    81   39   76 1   
    82   39   77 1   
    83   40   41 1   
    84   41   78 1   
    85   41   79 1   
    86   41   80 1   
    87   42   81 1   
    88   42   82 1   
@<TRIPOS>SUBSTRUCTURE
     1 5B7         1 TEMP              0 ****  ****    0 ROOT
