@<TRIPOS>MOLECULE
molecule
   84    87     1     0     0
SMALL
bcc


@<TRIPOS>ATOM
      1 C2           0.0000     0.0000     0.0000 ca         1 5B7       0.194100
      2 C3           1.3870     0.0000     0.0000 ca         1 5B7      -0.213000
      3 C4           2.0770     0.0000     1.1960 ca         1 5B7       0.007500
      4 C5           1.3860     0.0010     2.3940 ca         1 5B7      -0.354500
      5 C6           0.0030     0.0010     2.3970 ca         1 5B7       0.007500
      6 C7          -0.6910     0.0010     1.2030 ca         1 5B7      -0.213000
      7 S8           2.2700    -0.0000     3.9190 sy         1 5B7       1.424200
      8 O9           1.3890    -0.5450     4.8930 o          1 5B7      -0.640800
      9 O10          3.5520    -0.5450     3.6390 o          1 5B7      -0.640800
     10 N11          2.5170     1.5810     4.3430 n3         1 5B7      -0.812500
     11 C12          3.7240     2.2800     3.8940 c3         1 5B7       0.226800
     12 C13          3.4300     3.0160     2.5860 c3         1 5B7      -0.102700
     13 C14          2.3610     4.0830     2.8300 c3         1 5B7      -0.087600
     14 C15          4.7100     3.6830     2.0770 c3         1 5B7      -0.087600
     15 C16          1.5280     2.2810     5.1670 c3         1 5B7       0.232800
     16 C17          1.9290     2.1830     6.6400 c3         1 5B7       0.107100
     17 O18          3.1580     2.8840     6.8460 oh         1 5B7      -0.607800
     18 C19          0.8360     2.8050     7.5100 c3         1 5B7       0.112700
     19 N20          1.1630     2.6050     8.9240 ns         1 5B7      -0.566900
     20 C21          0.1820     2.5930     9.8470 c          1 5B7       0.744100
     21 O22         -0.9740     2.7470     9.5070 o          1 5B7      -0.598000
     22 O23          0.4830     2.4090    11.1470 os         1 5B7      -0.430900
     23 C24         -0.6250     2.4070    12.0860 c3         1 5B7       0.178100
     24 C25         -1.1500     0.9790    12.2430 c3         1 5B7      -0.145400
     25 O26         -1.7150     1.4420    14.5300 os         1 5B7      -0.446600
     26 C27         -1.1950     2.7740    14.5360 c3         1 5B7       0.346900
     27 O28         -0.3860     2.8880    15.7360 os         1 5B7      -0.386600
     28 C29          0.8250     2.1510    15.4840 c3         1 5B7       0.100400
     29 C30          1.0630     2.1760    13.9590 c3         1 5B7       0.123100
     30 C31         -0.1510     2.9550    13.4160 c3         1 5B7      -0.134700
     31 C32          0.7400     4.3030     7.2150 c3         1 5B7      -0.034100
     32 C33         -0.9190     5.3160     9.2550 ca         1 5B7      -0.121000
     33 C34         -2.0340     5.8210     9.8960 ca         1 5B7      -0.123000
     34 C35         -3.2570     5.8310     9.2510 ca         1 5B7      -0.140000
     35 C36         -3.3640     5.3360     7.9650 ca         1 5B7      -0.123000
     36 C37         -2.2480     4.8300     7.3240 ca         1 5B7      -0.121000
     37 C38         -1.0260     4.8200     7.9690 ca         1 5B7      -0.054300
     38 O39         -0.6820     0.0060    -1.1760 os         1 5B7      -0.322900
     39 C40          0.0950     0.0040    -2.3750 c3         1 5B7       0.125700
     40 O41          2.2790     2.8610    13.6510 os         1 5B7      -0.412600
     41 C42          3.4230     2.0080    13.5760 c3         1 5B7       0.128700
     42 C44         -2.2670     0.9960    13.2940 c3         1 5B7       0.151400
     43 H1           1.9290    -0.0010    -0.9380 ha         1 5B7       0.146500
     44 H2           3.1600     0.0000     1.1960 ha         1 5B7       0.151500
     45 H3          -0.5360     0.0010     3.3370 ha         1 5B7       0.151500
     46 H4          -1.7740     0.0010     1.2060 ha         1 5B7       0.146500
     47 H5           4.0290     2.9940     4.6500 h1         1 5B7       0.074200
     48 H6           4.5190     1.5620     3.7340 h1         1 5B7       0.074200
     49 H7           3.0720     2.3100     1.8470 hc         1 5B7       0.048700
     50 H8           2.5950     4.6290     3.7360 hc         1 5B7       0.037033
     51 H9           2.3370     4.7690     1.9910 hc         1 5B7       0.037033
     52 H10          1.3930     3.6080     2.9350 hc         1 5B7       0.037033
     53 H11          5.4710     2.9280     1.9190 hc         1 5B7       0.037033
     54 H12          4.5060     4.1910     1.1430 hc         1 5B7       0.037033
     55 H13          5.0600     4.4000     2.8100 hc         1 5B7       0.037033
     56 H14          1.4850     3.3220     4.8720 h1         1 5B7       0.069700
     57 H15          0.5550     1.8260     5.0270 h1         1 5B7       0.069700
     58 H16          2.0580     1.1420     6.9110 h1         1 5B7       0.062700
     59 H17          3.7430     2.3490     7.3570 ho         1 5B7       0.406000
     60 H18         -0.1140     2.3320     7.2890 h1         1 5B7       0.093700
     61 H19          2.1100     2.4370     9.1990 hn         1 5B7       0.319500
     62 H20         -1.4200     3.0370    11.7060 h1         1 5B7       0.081700
     63 H21         -1.5450     0.6290    11.2970 hc         1 5B7       0.067700
     64 H22         -0.3480     0.3300    12.5730 hc         1 5B7       0.067700
     65 H23         -1.9760     3.5230    14.4960 h2         1 5B7       0.090700
     66 H24          0.7100     1.1280    15.8220 h1         1 5B7       0.060700
     67 H25          1.6560     2.6240    15.9930 h1         1 5B7       0.060700
     68 H26          1.0750     1.1680    13.5620 h1         1 5B7       0.059700
     69 H27          0.1010     4.0030    13.3140 hc         1 5B7       0.095700
     70 H28          1.6590     4.7900     7.5190 hc         1 5B7       0.061200
     71 H29          0.5860     4.4540     6.1540 hc         1 5B7       0.061200
     72 H31         -1.9500     6.2100    10.9040 ha         1 5B7       0.124500
     73 H32         -4.1310     6.2270     9.7530 ha         1 5B7       0.124000
     74 H33         -4.3220     5.3440     7.4590 ha         1 5B7       0.124500
     75 H34         -2.3320     4.4420     6.3160 ha         1 5B7       0.124500
     76 H35         -0.5660    -0.0060    -3.2340 h1         1 5B7       0.046367
     77 H36          0.7260    -0.8760    -2.3960 h1         1 5B7       0.046367
     78 H37          0.7140     0.8930    -2.4060 h1         1 5B7       0.046367
     79 H38          3.2550     1.2430    12.8290 h1         1 5B7       0.030700
     80 H39          4.2930     2.5940    13.3040 h1         1 5B7       0.030700
     81 H40          3.5890     1.5420    14.5400 h1         1 5B7       0.030700
     82 H41         -2.6670    -0.0040    13.4150 h1         1 5B7       0.055700
     83 H42         -3.0510     1.6740    12.9800 h1         1 5B7       0.055700
     84 H30          0.0400     5.3080     9.7600 ha         1 5B7       0.124500
@<TRIPOS>BOND
     1    34    35 ar
     2    34    33 ar
     3    35    36 ar
     4    33    32 ar
     5    36    37 ar
     6    32    37 ar
     7    41    40 1
     8    38     1 1
     9    38    39 1
    10     2     1 ar
    11     2     3 ar
    12    37    31 1
    13     8     7 2
    14     1     6 ar
    15     3     4 ar
    16     6     5 ar
    17     4     5 ar
    18     4     7 1
    19    31    18 1
    20     7     9 2
    21     7    10 1
    22    40    29 1
    23    29    28 1
    24    29    30 1
    25    18    19 1
    26    18    16 1
    27    28    27 1
    28    10    15 1
    29    10    11 1
    30    15    16 1
    31    21    20 2
    32    19    20 1
    33    20    22 1
    34    30    23 1
    35    30    26 1
    36    16    17 1
    37    22    23 1
    38    23    24 1
    39    27    26 1
    40    11    12 1
    41    26    25 1
    42    13    12 1
    43    12    14 1
    44    24    42 1
    45    25    42 1
    46     2    43 1
    47     3    44 1
    48     5    45 1
    49     6    46 1
    50    11    47 1
    51    11    48 1
    52    12    49 1
    53    13    50 1
    54    13    51 1
    55    13    52 1
    56    14    53 1
    57    14    54 1
    58    14    55 1
    59    15    56 1
    60    15    57 1
    61    16    58 1
    62    17    59 1
    63    18    60 1
    64    19    61 1
    65    23    62 1
    66    24    63 1
    67    24    64 1
    68    26    65 1
    69    28    66 1
    70    28    67 1
    71    29    68 1
    72    30    69 1
    73    31    70 1
    74    31    71 1
    75    32    84 1
    76    33    72 1
    77    34    73 1
    78    35    74 1
    79    36    75 1
    80    39    76 1
    81    39    77 1
    82    39    78 1
    83    41    79 1
    84    41    80 1
    85    41    81 1
    86    42    82 1
    87    42    83 1
@<TRIPOS>SUBSTRUCTURE
     1 5B7         1 TEMP              0 ****  ****    0 ROOT
