@<TRIPOS>MOLECULE
molecule
  105   109     1     0     0
SMALL
bcc


@<TRIPOS>ATOM
      1 CAW          0.0000     0.0000     0.0000 c3         1 5B8      -0.079400
      2 CAO          1.5300     0.0000     0.0000 c3         1 5B8      -0.077400
      3 CAN          2.0400     0.0000     1.4430 c3         1 5B8      -0.081400
      4 CAP          1.5300     1.2510     2.1630 c3         1 5B8      -0.077400
      5 CAX         -0.0000     1.2510     2.1630 c3         1 5B8      -0.079400
      6 CBS         -0.5100     1.2490     0.7210 c3         1 5B8      -0.057700
      7 CBU         -2.0390     1.2500     0.7200 c3         1 5B8      -0.134700
      8 CBQ         -2.5490     2.4500     1.5200 c3         1 5B8       0.148100
      9 CAC         -2.1490     3.7440     0.8100 c3         1 5B8      -0.128100
     10 OAF         -3.9730     2.3840     1.6220 oh         1 5B8      -0.616800
     11 CBK         -2.5410     1.3420    -0.6980 c          1 5B8       0.680100
     12 OAE         -1.9300     1.9950    -1.5160 o          1 5B8      -0.594100
     13 N           -3.6700     0.6990    -1.0560 n          1 5B8      -0.477800
     14 CBA         -4.4870     0.0040    -0.0520 c3         1 5B8       0.109000
     15 CAR         -5.9290     0.5110    -0.1510 c3         1 5B8      -0.096400
     16 CAQ         -6.4250     0.3460    -1.5900 c3         1 5B8      -0.081400
     17 CB          -5.5540     1.1800    -2.5320 c3         1 5B8      -0.088400
     18 CA          -4.1110     0.6840    -2.4580 c3         1 5B8       0.081700
     19 C           -3.2260     1.5900    -3.2750 c          1 5B8       0.648100
     20 O           -3.2220     2.7800    -3.0660 o          1 5B8      -0.529000
     21 OBI         -2.4420     1.0740    -4.2350 os         1 5B8      -0.425900
     22 CBR         -1.6160     2.0060    -4.9820 c3         1 5B8       0.200400
     23 CAZ         -2.3880     2.5050    -6.2050 c3         1 5B8      -0.092400
     24 CAV         -3.6000     3.3180    -5.7450 c3         1 5B8      -0.033100
     25 CBL         -4.3620     3.8100    -6.9500 ca         1 5B8      -0.079300
     26 CAM         -5.3740     3.0380    -7.4880 ca         1 5B8      -0.187000
     27 CAJ         -4.0500     5.0350    -7.5090 ca         1 5B8      -0.124000
     28 CAK         -4.7450     5.4910    -8.6130 ca         1 5B8      -0.187000
     29 CBO         -5.7570     4.7190    -9.1620 ca         1 5B8       0.110100
     30 OBE         -6.4420     5.1670   -10.2480 os         1 5B8      -0.315900
     31 CAA         -6.0660     6.4420   -10.7730 c3         1 5B8       0.128700
     32 CBP         -6.0740     3.4890    -8.5950 ca         1 5B8       0.115100
     33 OBF         -7.0700     2.7300    -9.1260 os         1 5B8      -0.314900
     34 CAB         -7.3410     1.4790    -8.4920 c3         1 5B8       0.128700
     35 CBN         -0.3570     1.3110    -5.4330 ca         1 5B8      -0.051300
     36 CAL          0.8520     1.9780    -5.3920 ca         1 5B8      -0.144000
     37 CAI         -0.4130     0.0050    -5.8830 ca         1 5B8      -0.144000
     38 CAG          0.7410    -0.6360    -6.2980 ca         1 5B8      -0.096000
     39 CAH          1.9510     0.0270    -6.2630 ca         1 5B8      -0.222000
     40 CBM          2.0100     1.3370    -5.8070 ca         1 5B8       0.139100
     41 OBH          3.2010     1.9930    -5.7730 os         1 5B8      -0.312900
     42 CAU          4.3510     1.2730    -6.2220 c3         1 5B8       0.141400
     43 CBD          5.5870     2.1670    -6.1100 c3         1 5B8       0.163800
     44 NBV          5.8460     2.4720    -4.6970 n3         1 5B8      -0.716600
     45 CBB          6.8740     3.5130    -4.5620 c3         1 5B8       0.121800
     46 CAS          7.0690     3.8410    -3.0790 c3         1 5B8       0.139900
     47 OBG          7.4130     2.6460    -2.3730 os         1 5B8      -0.426600
     48 CAT          6.4330     1.6100    -2.4830 c3         1 5B8       0.139900
     49 CBC          6.2320     1.2590    -3.9590 c3         1 5B8       0.121800
     50 H1          -0.3600    -0.8840     0.5130 hc         1 5B8       0.043200
     51 H2          -0.3600     0.0020    -1.0220 hc         1 5B8       0.043200
     52 H3           1.8900    -0.8860    -0.5090 hc         1 5B8       0.043700
     53 H4           1.8900     0.8860    -0.5090 hc         1 5B8       0.043700
     54 H5           3.1240     0.0030     1.4410 hc         1 5B8       0.039700
     55 H6           1.6770    -0.8830     1.9530 hc         1 5B8       0.039700
     56 H7           1.8900     1.2490     3.1850 hc         1 5B8       0.043700
     57 H8           1.8900     2.1340     1.6500 hc         1 5B8       0.043700
     58 H9          -0.3600     0.3650     2.6730 hc         1 5B8       0.043200
     59 H10         -0.3600     2.1370     2.6710 hc         1 5B8       0.043200
     60 H11         -0.1440     2.1320     0.2100 hc         1 5B8       0.081700
     61 H12         -2.4010     0.3340     1.1720 hc         1 5B8       0.066700
     62 H13         -2.1150     2.4330     2.5130 h1         1 5B8       0.038700
     63 H14         -1.0690     3.7980     0.7380 hc         1 5B8       0.053700
     64 H15         -2.5150     4.5940     1.3740 hc         1 5B8       0.053700
     65 H16         -2.5790     3.7590    -0.1840 hc         1 5B8       0.053700
     66 H17         -4.2570     2.8620     2.3840 ho         1 5B8       0.404000
     67 H18         -4.4640    -1.0620    -0.2410 h1         1 5B8       0.055700
     68 H19         -4.0980     0.2110     0.9380 h1         1 5B8       0.055700
     69 H20         -6.5600    -0.0640     0.5160 hc         1 5B8       0.057700
     70 H21         -5.9620     1.5580     0.1230 hc         1 5B8       0.057700
     71 H22         -7.4520     0.6840    -1.6570 hc         1 5B8       0.043700
     72 H23         -6.3640    -0.6980    -1.8730 hc         1 5B8       0.043700
     73 H24         -5.5940     2.2200    -2.2330 hc         1 5B8       0.063700
     74 H25         -5.9190     1.0750    -3.5470 hc         1 5B8       0.063700
     75 H26         -4.0560    -0.3270    -2.8430 h1         1 5B8       0.065700
     76 H27         -1.3580     2.8470    -4.3500 h1         1 5B8       0.090700
     77 H28         -1.7430     3.1300    -6.8100 hc         1 5B8       0.057200
     78 H29         -2.7230     1.6580    -6.7920 hc         1 5B8       0.057200
     79 H30         -3.2660     4.1650    -5.1580 hc         1 5B8       0.059200
     80 H31         -4.2460     2.6920    -5.1400 hc         1 5B8       0.059200
     81 H32         -5.6200     2.0800    -7.0450 ha         1 5B8       0.139000
     82 H33         -3.2590     5.6390    -7.0810 ha         1 5B8       0.134000
     83 H34         -4.4990     6.4510    -9.0500 ha         1 5B8       0.138000
     84 H35         -6.6860     6.6770   -11.6290 h1         1 5B8       0.039033
     85 H36         -5.0260     6.4150   -11.0760 h1         1 5B8       0.039033
     86 H37         -6.2000     7.2000   -10.0110 h1         1 5B8       0.039033
     87 H38         -6.4510     0.8630    -8.5130 h1         1 5B8       0.038700
     88 H39         -8.1430     0.9740    -9.0180 h1         1 5B8       0.038700
     89 H40         -7.6370     1.6510    -7.4640 h1         1 5B8       0.038700
     90 H41          0.8960     3.0000    -5.0360 ha         1 5B8       0.149000
     91 H42         -1.3620    -0.5180    -5.9110 ha         1 5B8       0.140000
     92 H43          0.6940    -1.6590    -6.6510 ha         1 5B8       0.128000
     93 H44          2.8540    -0.4750    -6.5880 ha         1 5B8       0.130000
     94 H45          4.2120     0.9770    -7.2550 h1         1 5B8       0.036200
     95 H46          4.4870     0.3910    -5.6090 h1         1 5B8       0.036200
     96 H47          6.4430     1.6540    -6.5320 h1         1 5B8       0.047700
     97 H48          5.4160     3.0890    -6.6530 h1         1 5B8       0.047700
     98 H50          7.8080     3.1540    -4.9780 h1         1 5B8       0.042200
     99 H51          6.5570     4.4040    -5.0900 h1         1 5B8       0.042200
    100 H52          6.1490     4.2470    -2.6750 h1         1 5B8       0.054700
    101 H53          7.8680     4.5660    -2.9720 h1         1 5B8       0.054700
    102 H54          5.4950     1.9550    -2.0630 h1         1 5B8       0.054700
    103 H55          6.7730     0.7320    -1.9470 h1         1 5B8       0.054700
    104 H56          5.4480     0.5170    -4.0500 h1         1 5B8       0.042200
    105 H57          7.1570     0.8690    -4.3660 h1         1 5B8       0.042200
@<TRIPOS>BOND
     1    47    46 1
     2    47    48 1
     3    46    45 1
     4    48    49 1
     5    45    44 1
     6    49    44 1
     7    44    43 1
     8    39    38 ar
     9    39    40 ar
    10    38    37 ar
    11    42    41 1
    12    42    43 1
    13    41    40 1
    14    40    36 ar
    15    37    35 ar
    16    24    25 1
    17    24    23 1
    18    36    35 ar
    19    35    22 1
    20    27    25 ar
    21    27    28 ar
    22    25    26 ar
    23    23    22 1
    24     9     8 1
    25    28    29 ar
    26    10     8 1
    27    26    32 ar
    28    22    21 1
    29     8     7 1
    30    29    32 ar
    31    29    30 1
    32    32    33 1
    33    34    33 1
    34    30    31 1
    35    21    19 1
    36     7    11 1
    37     7     6 1
    38    14    13 1
    39    14    15 1
    40    19    20 2
    41    19    18 1
    42    11    13 1
    43    11    12 2
    44     6     1 1
    45     6     5 1
    46    13    18 1
    47     1     2 1
    48    15    16 1
    49    18    17 1
    50     2     3 1
    51    16    17 1
    52     5     4 1
    53     3     4 1
    54     1    50 1
    55     1    51 1
    56     2    52 1
    57     2    53 1
    58     3    54 1
    59     3    55 1
    60     4    56 1
    61     4    57 1
    62     5    58 1
    63     5    59 1
    64     6    60 1
    65     7    61 1
    66     8    62 1
    67     9    63 1
    68     9    64 1
    69     9    65 1
    70    10    66 1
    71    14    67 1
    72    14    68 1
    73    15    69 1
    74    15    70 1
    75    16    71 1
    76    16    72 1
    77    17    73 1
    78    17    74 1
    79    18    75 1
    80    22    76 1
    81    23    77 1
    82    23    78 1
    83    24    79 1
    84    24    80 1
    85    26    81 1
    86    27    82 1
    87    28    83 1
    88    31    84 1
    89    31    85 1
    90    31    86 1
    91    34    87 1
    92    34    88 1
    93    34    89 1
    94    36    90 1
    95    37    91 1
    96    38    92 1
    97    39    93 1
    98    42    94 1
    99    42    95 1
   100    43    96 1
   101    43    97 1
   102    45    98 1
   103    45    99 1
   104    46   100 1
   105    46   101 1
   106    48   102 1
   107    48   103 1
   108    49   104 1
   109    49   105 1
@<TRIPOS>SUBSTRUCTURE
     1 5B8         1 TEMP              0 ****  ****    0 ROOT
