@<TRIPOS>MOLECULE
5B8
  105   109     1     0     0
SMALL
bcc


@<TRIPOS>ATOM
      1 CAW          0.0000     0.0000     0.0000 c3         1 5B8      -0.032900
      2 CAO          1.5300     0.0000     0.0000 c3         1 5B8      -0.020900
      3 CAN          2.0400     0.0000     1.4430 c3         1 5B8      -0.026400
      4 CAP          1.5300     1.2510     2.1630 c3         1 5B8      -0.020900
      5 CAX         -0.0000     1.2510     2.1630 c3         1 5B8      -0.032900
      6 CBS         -0.5100     1.2490     0.7210 c3         1 5B8      -0.042700
      7 CBU         -2.0390     1.2500     0.7200 c3         1 5B8      -0.132700
      8 CBQ         -2.5490     2.4500     1.5200 c3         1 5B8       0.191100
      9 CAC         -2.1490     3.7440     0.8100 c3         1 5B8      -0.057100
     10 OAF         -3.9730     2.3840     1.6220 oh         1 5B8      -0.600800
     11 CBK         -2.5410     1.3420    -0.6980 c          1 5B8       0.605100
     12 OAE         -1.9300     1.9950    -1.5160 o          1 5B8      -0.633100
     13 N           -3.6700     0.6990    -1.0560 n          1 5B8      -0.134800
     14 CBA         -4.4870     0.0040    -0.0520 c3         1 5B8       0.038000
     15 CAR         -5.9290     0.5110    -0.1510 c3         1 5B8      -0.041400
     16 CAQ         -6.4250     0.3460    -1.5900 c3         1 5B8      -0.025400
     17 CB          -5.5540     1.1800    -2.5320 c3         1 5B8      -0.038400
     18 CA          -4.1110     0.6840    -2.4580 c3         1 5B8      -0.008300
     19 C           -3.2260     1.5900    -3.2750 c          1 5B8       0.708100
     20 O           -3.2220     2.7800    -3.0660 o          1 5B8      -0.558000
     21 OBI         -2.4420     1.0740    -4.2350 os         1 5B8      -0.404900
     22 CBR         -1.6160     2.0060    -4.9820 c3         1 5B8       0.239400
     23 CAZ         -2.3880     2.5050    -6.2050 c3         1 5B8      -0.047400
     24 CAV         -3.6000     3.3180    -5.7450 c3         1 5B8       0.017900
     25 CBL         -4.3620     3.8100    -6.9500 ca         1 5B8      -0.082300
     26 CAM         -5.3740     3.0380    -7.4880 ca         1 5B8      -0.176000
     27 CAJ         -4.0500     5.0350    -7.5090 ca         1 5B8      -0.096000
     28 CAK         -4.7450     5.4910    -8.6130 ca         1 5B8      -0.175000
     29 CBO         -5.7570     4.7190    -9.1620 ca         1 5B8       0.111100
     30 OBE         -6.4420     5.1670   -10.2480 os         1 5B8      -0.294900
     31 CAA         -6.0660     6.4420   -10.7730 c3         1 5B8       0.241700
     32 CBP         -6.0740     3.4890    -8.5950 ca         1 5B8       0.118100
     33 OBF         -7.0700     2.7300    -9.1260 os         1 5B8      -0.294900
     34 CAB         -7.3410     1.4790    -8.4920 c3         1 5B8       0.241700
     35 CBN         -0.3570     1.3110    -5.4330 ca         1 5B8      -0.061300
     36 CAL          0.8520     1.9780    -5.3920 ca         1 5B8      -0.124000
     37 CAI         -0.4130     0.0050    -5.8830 ca         1 5B8      -0.125000
     38 CAG          0.7410    -0.6360    -6.2980 ca         1 5B8      -0.061000
     39 CAH          1.9510     0.0270    -6.2630 ca         1 5B8      -0.214000
     40 CBM          2.0100     1.3370    -5.8070 ca         1 5B8       0.148100
     41 OBH          3.2010     1.9930    -5.7730 os         1 5B8      -0.288900
     42 CAU          4.3510     1.2730    -6.2220 c3         1 5B8       0.195400
     43 CBD          5.5870     2.1670    -6.1100 c3         1 5B8       0.149800
     44 NBV          5.8460     2.4720    -4.6970 n3         1 5B8      -0.526600
     45 CBB          6.8740     3.5130    -4.5620 c3         1 5B8       0.106800
     46 CAS          7.0690     3.8410    -3.0790 c3         1 5B8       0.214900
     47 OBG          7.4130     2.6460    -2.3730 os         1 5B8      -0.413600
     48 CAT          6.4330     1.6100    -2.4830 c3         1 5B8       0.214900
     49 CBC          6.2320     1.2590    -3.9590 c3         1 5B8       0.106800
     50 H1          -0.3600    -0.8840     0.5130 hc         1 5B8       0.018200
     51 H2          -0.3600     0.0020    -1.0220 hc         1 5B8       0.018200
     52 H3           1.8900    -0.8860    -0.5090 hc         1 5B8       0.015450
     53 H4           1.8900     0.8860    -0.5090 hc         1 5B8       0.015450
     54 H5           3.1240     0.0030     1.4410 hc         1 5B8       0.011700
     55 H6           1.6770    -0.8830     1.9530 hc         1 5B8       0.011700
     56 H7           1.8900     1.2490     3.1850 hc         1 5B8       0.015450
     57 H8           1.8900     2.1340     1.6500 hc         1 5B8       0.015450
     58 H9          -0.3600     0.3650     2.6730 hc         1 5B8       0.018200
     59 H10         -0.3600     2.1370     2.6710 hc         1 5B8       0.018200
     60 H11         -0.1440     2.1320     0.2100 hc         1 5B8       0.064700
     61 H12         -2.4010     0.3340     1.1720 hc         1 5B8       0.046700
     62 H13         -2.1150     2.4330     2.5130 h1         1 5B8       0.011700
     63 H14         -1.0690     3.7980     0.7380 hc         1 5B8       0.026367
     64 H15         -2.5150     4.5940     1.3740 hc         1 5B8       0.026367
     65 H16         -2.5790     3.7590    -0.1840 hc         1 5B8       0.026367
     66 H17         -4.2570     2.8620     2.3840 ho         1 5B8       0.394000
     67 H18         -4.4640    -1.0620    -0.2410 h1         1 5B8       0.033700
     68 H19         -4.0980     0.2110     0.9380 h1         1 5B8       0.033700
     69 H20         -6.5600    -0.0640     0.5160 hc         1 5B8       0.028700
     70 H21         -5.9620     1.5580     0.1230 hc         1 5B8       0.028700
     71 H22         -7.4520     0.6840    -1.6570 hc         1 5B8       0.015700
     72 H23         -6.3640    -0.6980    -1.8730 hc         1 5B8       0.015700
     73 H24         -5.5940     2.2200    -2.2330 hc         1 5B8       0.034700
     74 H25         -5.9190     1.0750    -3.5470 hc         1 5B8       0.034700
     75 H26         -4.0560    -0.3270    -2.8430 h1         1 5B8       0.035700
     76 H27         -1.3580     2.8470    -4.3500 h1         1 5B8       0.058700
     77 H28         -1.7430     3.1300    -6.8100 hc         1 5B8       0.027700
     78 H29         -2.7230     1.6580    -6.7920 hc         1 5B8       0.027700
     79 H30         -3.2660     4.1650    -5.1580 hc         1 5B8       0.032200
     80 H31         -4.2460     2.6920    -5.1400 hc         1 5B8       0.032200
     81 H32         -5.6200     2.0800    -7.0450 ha         1 5B8       0.123000
     82 H33         -3.2590     5.6390    -7.0810 ha         1 5B8       0.108000
     83 H34         -4.4990     6.4510    -9.0500 ha         1 5B8       0.120000
     84 H35         -6.6860     6.6770   -11.6290 h1         1 5B8      -0.004300
     85 H36         -5.0260     6.4150   -11.0760 h1         1 5B8      -0.004300
     86 H37         -6.2000     7.2000   -10.0110 h1         1 5B8      -0.004300
     87 H38         -6.4510     0.8630    -8.5130 h1         1 5B8      -0.004633
     88 H39         -8.1430     0.9740    -9.0180 h1         1 5B8      -0.004633
     89 H40         -7.6370     1.6510    -7.4640 h1         1 5B8      -0.004633
     90 H41          0.8960     3.0000    -5.0360 ha         1 5B8       0.123000
     91 H42         -1.3620    -0.5180    -5.9110 ha         1 5B8       0.114000
     92 H43          0.6940    -1.6590    -6.6510 ha         1 5B8       0.099000
     93 H44          2.8540    -0.4750    -6.5880 ha         1 5B8       0.116000
     94 H45          4.2120     0.9770    -7.2550 h1         1 5B8       0.005700
     95 H46          4.4870     0.3910    -5.6090 h1         1 5B8       0.005700
     96 H47          6.4430     1.6540    -6.5320 h1         1 5B8       0.018700
     97 H48          5.4160     3.0890    -6.6530 h1         1 5B8       0.018700
     98 H50          7.8080     3.1540    -4.9780 h1         1 5B8       0.017450
     99 H51          6.5570     4.4040    -5.0900 h1         1 5B8       0.017450
    100 H52          6.1490     4.2470    -2.6750 h1         1 5B8       0.013700
    101 H53          7.8680     4.5660    -2.9720 h1         1 5B8       0.013700
    102 H54          5.4950     1.9550    -2.0630 h1         1 5B8       0.013700
    103 H55          6.7730     0.7320    -1.9470 h1         1 5B8       0.013700
    104 H56          5.4480     0.5170    -4.0500 h1         1 5B8       0.017450
    105 H57          7.1570     0.8690    -4.3660 h1         1 5B8       0.017450
@<TRIPOS>BOND
     1     1     2 1   
     2     1     6 1   
     3     1    50 1   
     4     1    51 1   
     5     2     3 1   
     6     2    52 1   
     7     2    53 1   
     8     3     4 1   
     9     3    54 1   
    10     3    55 1   
    11     4     5 1   
    12     4    56 1   
    13     4    57 1   
    14     5     6 1   
    15     5    58 1   
    16     5    59 1   
    17     6     7 1   
    18     6    60 1   
    19     7     8 1   
    20     7    11 1   
    21     7    61 1   
    22     8     9 1   
    23     8    10 1   
    24     8    62 1   
    25     9    63 1   
    26     9    64 1   
    27     9    65 1   
    28    10    66 1   
    29    11    12 2   
    30    11    13 1   
    31    13    14 1   
    32    13    18 1   
    33    14    15 1   
    34    14    67 1   
    35    14    68 1   
    36    15    16 1   
    37    15    69 1   
    38    15    70 1   
    39    16    17 1   
    40    16    71 1   
    41    16    72 1   
    42    17    18 1   
    43    17    73 1   
    44    17    74 1   
    45    18    19 1   
    46    18    75 1   
    47    19    20 2   
    48    19    21 1   
    49    21    22 1   
    50    22    23 1   
    51    22    35 1   
    52    22    76 1   
    53    23    24 1   
    54    23    77 1   
    55    23    78 1   
    56    24    25 1   
    57    24    79 1   
    58    24    80 1   
    59    25    26 ar  
    60    25    27 ar  
    61    26    32 ar  
    62    26    81 1   
    63    27    28 ar  
    64    27    82 1   
    65    28    29 ar  
    66    28    83 1   
    67    29    30 1   
    68    29    32 ar  
    69    30    31 1   
    70    31    84 1   
    71    31    85 1   
    72    31    86 1   
    73    32    33 1   
    74    33    34 1   
    75    34    87 1   
    76    34    88 1   
    77    34    89 1   
    78    35    36 ar  
    79    35    37 ar  
    80    36    40 ar  
    81    36    90 1   
    82    37    38 ar  
    83    37    91 1   
    84    38    39 ar  
    85    38    92 1   
    86    39    40 ar  
    87    39    93 1   
    88    40    41 1   
    89    41    42 1   
    90    42    43 1   
    91    42    94 1   
    92    42    95 1   
    93    43    44 1   
    94    43    96 1   
    95    43    97 1   
    96    44    45 1   
    97    44    49 1   
    98    45    46 1   
    99    45    98 1   
   100    45    99 1   
   101    46    47 1   
   102    46   100 1   
   103    46   101 1   
   104    47    48 1   
   105    48    49 1   
   106    48   102 1   
   107    48   103 1   
   108    49   104 1   
   109    49   105 1   
@<TRIPOS>SUBSTRUCTURE
     1 5B8         1 TEMP              0 ****  ****    0 ROOT
