@<TRIPOS>MOLECULE
molecule
   34    36     1     0     0
SMALL
bcc


@<TRIPOS>ATOM
      1 C1           0.0000     0.0000     0.0000 ca         1 5B9      -0.028000
      2 C2           1.4050     0.0000     0.0000 ca         1 5B9      -0.083300
      3 C3          -0.6960    -0.0060     1.2350 ca         1 5B9      -0.040000
      4 C11          1.3940     0.0000     2.3980 ca         1 5B9      -0.115000
      5 C12         -2.7740    -0.0130     0.0510 ca         1 5B9      -0.143000
      6 C13          4.3970     0.0010    -2.1090 ca         1 5B9       0.156100
      7 C14          5.7870    -0.0050    -1.9240 ca         1 5B9      -0.127600
      8 C15          3.8740     0.0010    -3.3930 ca         1 5B9      -0.255000
      9 C16          6.6310    -0.0100    -3.0380 ca         1 5B9      -0.063000
     10 C17          6.3540    -0.0050    -0.5640 c          1 5B9       0.888200
     11 C18          4.7210    -0.0050    -4.4850 ca         1 5B9      -0.117000
     12 C19          6.0940    -0.0100    -4.3080 ca         1 5B9      -0.199000
     13 C4          -0.7300    -0.0010    -1.2010 ca         1 5B9      -0.116000
     14 C5           2.1630    -0.0000    -1.3020 c3         1 5B9       0.178700
     15 C6           2.0790     0.0000     1.1840 ca         1 5B9      -0.084000
     16 C7           0.0340    -0.0070     2.4360 ca         1 5B9      -0.141000
     17 C8          -2.1010    -0.0130     1.2340 ca         1 5B9      -0.116000
     18 C9          -2.0910    -0.0010    -1.1630 ca         1 5B9      -0.139000
     19 O10          3.5660     0.0000    -1.0370 os         1 5B9      -0.271900
     20 O20          7.6910    -0.0100    -0.3920 o          1 5B9      -0.835800
     21 O21          5.6160    -0.0000     0.4020 o          1 5B9      -0.835800
     22 H1           1.9540     0.0000     3.3260 ha         1 5B9       0.131000
     23 H2          -3.8570    -0.0130     0.0540 ha         1 5B9       0.115000
     24 H3           2.8010     0.0050    -3.5410 ha         1 5B9       0.109000
     25 H4           7.7060    -0.0140    -2.9040 ha         1 5B9       0.158000
     26 H5           4.3070    -0.0050    -5.4870 ha         1 5B9       0.101000
     27 H6           6.7490    -0.0140    -5.1700 ha         1 5B9       0.106000
     28 H7          -0.2120     0.0080    -2.1530 ha         1 5B9       0.131000
     29 H8           1.9030    -0.8850    -1.8710 h1         1 5B9       0.034200
     30 H9           1.9030     0.8850    -1.8710 h1         1 5B9       0.034200
     31 H10          3.1620     0.0060     1.1810 ha         1 5B9       0.207000
     32 H11         -0.4840    -0.0070     3.3880 ha         1 5B9       0.120000
     33 H12         -2.6460    -0.0220     2.1700 ha         1 5B9       0.122000
     34 H13         -2.6510    -0.0010    -2.0900 ha         1 5B9       0.117000
@<TRIPOS>BOND
     1    21    10 1
     2    20    10 1
     3    10     7 1
     4     7     9 ar
     5     7     6 ar
     6     4    16 ar
     7     4    15 ar
     8    16     3 ar
     9     9    12 ar
    10    19     6 1
    11    19    14 1
    12    15     2 ar
    13     3    17 ar
    14     3     1 ar
    15    17     5 ar
    16     6     8 ar
    17     2     1 ar
    18     2    14 1
    19     1    13 ar
    20     5    18 ar
    21    12    11 ar
    22    13    18 ar
    23     8    11 ar
    24     4    22 1
    25     5    23 1
    26     8    24 1
    27     9    25 1
    28    11    26 1
    29    12    27 1
    30    13    28 1
    31    14    29 1
    32    14    30 1
    33    15    31 1
    34    16    32 1
    35    17    33 1
    36    18    34 1
@<TRIPOS>SUBSTRUCTURE
     1 5B9         1 TEMP              0 ****  ****    0 ROOT
