@<TRIPOS>MOLECULE
5B9
   34    36     1     0     0
SMALL
bcc


@<TRIPOS>ATOM
      1 C1          0.0130    0.1020   -0.0680 ca        1 5B9     -0.026000
      2 C2          1.4310    0.1940   -0.2030 ca        1 5B9     -0.105300
      3 C3         -0.5420   -0.1170    1.2220 ca        1 5B9     -0.046000
      4 C11         1.6840   -0.1760    2.1790 ca        1 5B9     -0.111000
      5 C12        -2.7830   -0.0890    0.2840 ca        1 5B9     -0.150000
      6 C13         4.2820    0.3580   -2.2860 ca        1 5B9      0.115100
      7 C14         5.5620    0.0600   -1.7870 ca        1 5B9     -0.107600
      8 C15         3.9720    0.1900   -3.6440 ca        1 5B9     -0.202000
      9 C16         6.5270   -0.3910   -2.6940 ca        1 5B9     -0.101000
     10 C17         5.9530    0.2020   -0.3210 c         1 5B9      0.923200
     11 C18         4.9490   -0.2820   -4.5180 ca        1 5B9     -0.142000
     12 C19         6.2270   -0.5690   -4.0440 ca        1 5B9     -0.169000
     13 C4         -0.8760    0.2090   -1.1750 ca        1 5B9     -0.118000
     14 C5          2.0220    0.4340   -1.5570 c3        1 5B9      0.179700
     15 C6          2.2460    0.0450    0.9000 ca        1 5B9     -0.081000
     16 C7          0.3230   -0.2510    2.3410 ca        1 5B9     -0.147000
     17 C8         -1.9530   -0.2050    1.3710 ca        1 5B9     -0.116000
     18 C9         -2.2350    0.1180   -1.0040 ca        1 5B9     -0.145000
     19 O10         3.3610    0.9230   -1.4130 os        1 5B9     -0.313900
     20 O20         6.9110    0.9740   -0.0470 o         1 5B9     -0.825800
     21 O21         5.3300   -0.4920    0.5320 o         1 5B9     -0.825800
     22 H1          2.3650   -0.2890    3.0370 ha        1 5B9      0.139000
     23 H2         -3.8730   -0.1560    0.3980 ha        1 5B9      0.116000
     24 H3          2.9680    0.4350   -4.0150 ha        1 5B9      0.113000
     25 H4          7.5390   -0.6000   -2.3140 ha        1 5B9      0.140000
     26 H5          4.7080   -0.4200   -5.5810 ha        1 5B9      0.105000
     27 H6          6.9990   -0.9340   -4.7350 ha        1 5B9      0.107000
     28 H7         -0.4580    0.3620   -2.1810 ha        1 5B9      0.127000
     29 H8          1.9890   -0.5160   -2.1540 h1        1 5B9      0.039200
     30 H9          1.4520    1.2380   -2.1010 h1        1 5B9      0.039200
     31 H10         3.3560    0.0870    0.7870 ha        1 5B9      0.235000
     32 H11        -0.1220   -0.4190    3.3330 ha        1 5B9      0.117000
     33 H12        -2.3640   -0.3700    2.3780 ha        1 5B9      0.119000
     34 H13        -2.9140    0.2040   -1.8650 ha        1 5B9      0.117000
@<TRIPOS>BOND
     1    1    2 ar  
     2    1    3 ar  
     3    1   13 ar  
     4    2   14 1   
     5    2   15 ar  
     6    3   16 ar  
     7    3   17 ar  
     8    4   15 ar  
     9    4   16 ar  
    10    4   22 1   
    11    5   17 ar  
    12    5   18 ar  
    13    5   23 1   
    14    6    7 ar  
    15    6    8 ar  
    16    6   19 1   
    17    7    9 ar  
    18    7   10 1   
    19    8   11 ar  
    20    8   24 1   
    21    9   12 ar  
    22    9   25 1   
    23   10   20 1   
    24   10   21 1   
    25   11   12 ar  
    26   11   26 1   
    27   12   27 1   
    28   13   18 ar  
    29   13   28 1   
    30   14   19 1   
    31   14   29 1   
    32   14   30 1   
    33   15   31 1   
    34   16   32 1   
    35   17   33 1   
    36   18   34 1   
@<TRIPOS>SUBSTRUCTURE
     1 5B9         1 TEMP              0 ****  ****    0 ROOT
