@<TRIPOS>MOLECULE
5BA
   62    64     1     0     0
SMALL
bcc


@<TRIPOS>ATOM
      1 CAO          0.0000     0.0000     0.0000 c3         1 5BA       0.141800
      2 CAM          1.5310     0.0000     0.0000 c3         1 5BA       0.157800
      3 NBD          2.0190     0.0000     1.3860 n3         1 5BA      -0.553600
      4 CAD          3.4850    -0.0770     1.4280 c3         1 5BA       0.189100
      5 CAN          1.5320     1.1810     2.1130 c3         1 5BA       0.157800
      6 CAP          0.0010     1.1820     2.1130 c3         1 5BA       0.141800
      7 N           -0.4860     1.1810     0.7270 n3         1 5BA      -0.520600
      8 CA          -1.9530     1.2580     0.6850 c3         1 5BA       0.062800
      9 C           -2.4030     1.5030    -0.7330 c          1 5BA       0.626700
     10 O           -1.5820     1.6030    -1.6200 o          1 5BA      -0.543100
     11 CAV         -3.8340     1.6190    -1.0390 ca         1 5BA      -0.236600
     12 CAJ         -4.2520     1.8400    -2.3530 ca         1 5BA       0.015000
     13 CAH         -4.7830     1.5030    -0.0130 ca         1 5BA       0.007000
     14 CAI         -6.1260     1.6120    -0.2960 ca         1 5BA      -0.239000
     15 CAW         -6.5510     1.8370    -1.5980 ca         1 5BA       0.242100
     16 OAT         -7.8740     1.9420    -1.8700 os         1 5BA      -0.249900
     17 CAL         -8.7750     1.8110    -0.7690 c3         1 5BA       0.186400
     18 CAK        -10.2140     1.9590    -1.2660 c3         1 5BA      -0.035400
     19 CAA        -11.1790     1.8180    -0.0860 c3         1 5BA       0.011900
     20 CAY         -5.6110     1.9490    -2.6360 ca         1 5BA      -0.224900
     21 CAZ         -6.0620     2.1830    -4.0220 cc         1 5BA       0.370500
     22 NAR         -7.3510     2.2840    -4.2750 nd         1 5BA      -0.533300
     23 NAS         -5.1370     2.2950    -5.0170 ns         1 5BA       0.027600
     24 CBB         -5.5420     2.5090    -6.2870 c          1 5BA       0.599700
     25 OAF         -4.7290     2.6120    -7.1910 o          1 5BA      -0.667500
     26 CAX         -6.9230     2.6100    -6.5490 cc         1 5BA      -0.201500
     27 Br          -7.5500     2.9100    -8.3070 br         1 5BA      -0.038700
     28 CBA         -7.8010     2.4950    -5.5100 cd         1 5BA       0.185400
     29 CBC         -9.2830     2.5990    -5.7630 c3         1 5BA      -0.012500
     30 CAC         -9.9660     1.3010    -5.3290 c3         1 5BA       0.004900
     31 CAB         -9.8560     3.7700    -4.9600 c3         1 5BA       0.004900
     32 H1          -0.3600     0.0320    -1.0210 h1         1 5BA       0.018950
     33 H2          -0.3600    -0.8970     0.4880 h1         1 5BA       0.018950
     34 H3           1.8910     0.8860    -0.5080 h1         1 5BA       0.015450
     35 H4           1.8910    -0.8860    -0.5090 h1         1 5BA       0.015450
     36 H6           3.8200    -0.0270     2.4570 h1         1 5BA       0.000367
     37 H7           3.8100    -1.0120     0.9870 h1         1 5BA       0.000367
     38 H8           3.9060     0.7510     0.8700 h1         1 5BA       0.000367
     39 H9           1.8920     1.1490     3.1340 h1         1 5BA       0.015450
     40 H10          1.8930     2.0780     1.6240 h1         1 5BA       0.015450
     41 H11         -0.3590     0.2960     2.6210 h1         1 5BA       0.018950
     42 H12         -0.3580     2.0680     2.6210 h1         1 5BA       0.018950
     43 H14         -2.3740     0.3260     1.0410 h1         1 5BA       0.028700
     44 H15         -2.2900     2.0720     1.3160 h1         1 5BA       0.028700
     45 H16         -3.5220     1.9260    -3.1480 ha         1 5BA       0.124000
     46 H17         -4.4590     1.3280     1.0050 ha         1 5BA       0.108000
     47 H18         -6.8540     1.5210     0.5010 ha         1 5BA       0.131000
     48 H19         -8.6480     0.8370    -0.3130 h1         1 5BA       0.003200
     49 H20         -8.5650     2.5820    -0.0370 h1         1 5BA       0.003200
     50 H21        -10.4240     1.1880    -1.9980 hc         1 5BA       0.027700
     51 H22        -10.3400     2.9330    -1.7220 hc         1 5BA       0.027700
     52 H23        -11.0700     0.8340     0.3540 hc         1 5BA       0.003367
     53 H24        -12.1960     1.9470    -0.4350 hc         1 5BA       0.003367
     54 H25        -10.9530     2.5730     0.6570 hc         1 5BA       0.003367
     55 H27         -9.4580     2.7650    -6.8190 hc         1 5BA       0.045700
     56 H28         -9.5340     0.4670    -5.8690 hc         1 5BA       0.009200
     57 H29         -9.8230     1.1550    -4.2650 hc         1 5BA       0.009200
     58 H30        -11.0260     1.3610    -5.5450 hc         1 5BA       0.009200
     59 H31         -9.5860     4.7030    -5.4400 hc         1 5BA       0.009200
     60 H32        -10.9350     3.6840    -4.9170 hc         1 5BA       0.009200
     61 H33         -9.4510     3.7510    -3.9550 hc         1 5BA       0.009200
     62 H5          -4.1610     2.2190    -4.8070 hn         1 5BA       0.192500
@<TRIPOS>BOND
     1     1     2 1   
     2     1     7 1   
     3     1    32 1   
     4     1    33 1   
     5     2     3 1   
     6     2    34 1   
     7     2    35 1   
     8     3     4 1   
     9     3     5 1   
    10     4    36 1   
    11     4    37 1   
    12     4    38 1   
    13     5     6 1   
    14     5    39 1   
    15     5    40 1   
    16     6     7 1   
    17     6    41 1   
    18     6    42 1   
    19     7     8 1   
    20     8     9 1   
    21     8    43 1   
    22     8    44 1   
    23     9    10 2   
    24     9    11 1   
    25    11    12 ar  
    26    11    13 ar  
    27    12    20 ar  
    28    12    45 1   
    29    13    14 ar  
    30    13    46 1   
    31    14    15 ar  
    32    14    47 1   
    33    15    16 1   
    34    15    20 ar  
    35    16    17 1   
    36    17    18 1   
    37    17    48 1   
    38    17    49 1   
    39    18    19 1   
    40    18    50 1   
    41    18    51 1   
    42    19    52 1   
    43    19    53 1   
    44    19    54 1   
    45    20    21 1   
    46    21    22 2   
    47    21    23 1   
    48    22    28 1   
    49    23    24 1   
    50    23    62 1   
    51    24    25 2   
    52    24    26 1   
    53    26    27 1   
    54    26    28 2   
    55    28    29 1   
    56    29    30 1   
    57    29    31 1   
    58    29    55 1   
    59    30    56 1   
    60    30    57 1   
    61    30    58 1   
    62    31    59 1   
    63    31    60 1   
    64    31    61 1   
@<TRIPOS>SUBSTRUCTURE
     1 5BA         1 TEMP              0 ****  ****    0 ROOT
