@<TRIPOS>MOLECULE
molecule
   72    74     1     0     0
SMALL
bcc


@<TRIPOS>ATOM
      1 CAU          0.0000     0.0000     0.0000 c3         1 5BB       0.235800
      2 CAS          1.5320     0.0000     0.0000 c3         1 5BB       0.153300
      3 NBG          2.0190     0.0000     1.3870 n3         1 5BB      -0.732600
      4 CAC          3.4770    -0.1730     1.4320 c3         1 5BB       0.153100
      5 CAT          1.6090     1.2210     2.0940 c3         1 5BB       0.153300
      6 CAV          0.0810     1.2700     2.1800 c3         1 5BB       0.235800
      7 NBH         -0.4680     1.1250     0.8230 n3         1 5BB      -0.821500
      8 SBI         -1.5830     2.2000     0.2380 sy         1 5BB       1.429200
      9 OAE         -1.4110     3.4010     0.9790 o          1 5BB      -0.635300
     10 OAF         -1.4920     2.1420    -1.1780 o          1 5BB      -0.635300
     11 CAZ         -3.1770     1.5800     0.6590 ca         1 5BB      -0.360500
     12 CAJ         -3.8340     0.7310    -0.2060 ca         1 5BB       0.030000
     13 CAH         -3.7630     1.9410     1.8620 ca         1 5BB       0.035000
     14 CAI         -5.0120     1.4600     2.2040 ca         1 5BB      -0.255000
     15 CBA         -5.6890     0.6100     1.3430 ca         1 5BB       0.250100
     16 OAY         -6.9150     0.1360     1.6780 os         1 5BB      -0.269900
     17 CAL         -7.4510     0.5550     2.9350 c3         1 5BB       0.123400
     18 CAB         -8.8310    -0.0760     3.1360 c3         1 5BB      -0.089100
     19 CBD         -5.0960     0.2340     0.1290 ca         1 5BB      -0.213900
     20 CBE         -5.8060    -0.6700    -0.7940 cc         1 5BB       0.574500
     21 NAW         -7.0020    -1.1200    -0.4690 nd         1 5BB      -0.639300
     22 NAX         -5.2170    -1.0220    -1.9730 ns         1 5BB      -0.446400
     23 CBF         -5.8630    -1.8480    -2.8230 c          1 5BB       0.698700
     24 OAD         -5.3520    -2.1740    -3.8820 o          1 5BB      -0.622500
     25 CBC         -7.1390    -2.3280    -2.4640 cc         1 5BB      -0.241500
     26 Br          -8.0890    -3.4890    -3.6150 br         1 5BB      -0.032700
     27 CBB         -7.6780    -1.9370    -1.2740 cd         1 5BB       0.234400
     28 CAR         -9.0400    -2.4360    -0.8660 c3         1 5BB      -0.042200
     29 CAQ         -8.8860    -3.6690     0.0260 c3         1 5BB      -0.075400
     30 CAP        -10.2680    -4.1760     0.4400 c3         1 5BB      -0.080400
     31 CAO        -10.1140    -5.4100     1.3330 c3         1 5BB      -0.081400
     32 CAN        -11.4970    -5.9160     1.7470 c3         1 5BB      -0.082400
     33 CAM        -11.3430    -7.1500     2.6380 c3         1 5BB      -0.081400
     34 CAK        -12.7260    -7.6560     3.0520 c3         1 5BB      -0.084400
     35 CAA        -12.5710    -8.8900     3.9440 c3         1 5BB      -0.092100
     36 H1          -0.3630    -0.9310     0.4180 h1         1 5BB       0.060700
     37 H2          -0.3630     0.1170    -1.0140 h1         1 5BB       0.060700
     38 H3           1.8920    -0.8860    -0.5080 h1         1 5BB       0.044450
     39 H4           1.8920     0.8860    -0.5080 h1         1 5BB       0.044450
     40 H6           3.7460    -1.1020     0.9460 h1         1 5BB       0.034367
     41 H7           3.9540     0.6540     0.9210 h1         1 5BB       0.034367
     42 H8           3.8050    -0.1970     2.4640 h1         1 5BB       0.034367
     43 H9           1.9680     2.0880     1.5530 h1         1 5BB       0.044450
     44 H10          2.0260     1.2140     3.0940 h1         1 5BB       0.044450
     45 H11         -0.2740     0.4580     2.8040 h1         1 5BB       0.060700
     46 H12         -0.2290     2.2200     2.5980 h1         1 5BB       0.060700
     47 H13         -3.3690     0.4460    -1.1420 ha         1 5BB       0.150000
     48 H14         -3.2380     2.6050     2.5380 ha         1 5BB       0.155000
     49 H15         -5.4630     1.7470     3.1460 ha         1 5BB       0.151000
     50 H16         -6.7900     0.2390     3.7330 h1         1 5BB       0.037700
     51 H17         -7.5430     1.6340     2.9470 h1         1 5BB       0.037700
     52 H18         -8.7270    -1.1510     3.2270 hc         1 5BB       0.052033
     53 H19         -9.2810     0.3210     4.0380 hc         1 5BB       0.052033
     54 H20         -9.4610     0.1550     2.2860 hc         1 5BB       0.052033
     55 H21         -4.3100    -0.6690    -2.2070 hn         1 5BB       0.342500
     56 H22         -9.6080    -2.6980    -1.7500 hc         1 5BB       0.069700
     57 H23         -9.5600    -1.6580    -0.3190 hc         1 5BB       0.069700
     58 H24         -8.3170    -3.4070     0.9100 hc         1 5BB       0.051700
     59 H25        -10.8360    -4.4390    -0.4440 hc         1 5BB       0.042200
     60 H26         -9.5460    -5.1470     2.2170 hc         1 5BB       0.042700
     61 H27        -12.0650    -6.1790     0.8620 hc         1 5BB       0.041200
     62 H28        -10.7740    -6.8880     3.5220 hc         1 5BB       0.041200
     63 H29        -10.8220    -7.9270     2.0920 hc         1 5BB       0.041200
     64 H30        -13.2460    -6.8780     3.5990 hc         1 5BB       0.039700
     65 H31        -13.2940    -7.9180     2.1680 hc         1 5BB       0.039700
     66 H32        -13.5510    -9.2520     4.2320 hc         1 5BB       0.032700
     67 H33        -12.0080    -8.6270     4.8310 hc         1 5BB       0.032700
     68 H34        -12.0460    -9.6650     3.3990 hc         1 5BB       0.032700
     69 H5          -8.3650    -4.4470    -0.5200 hc         1 5BB       0.051700
     70 H35        -10.7890    -3.3990     0.9860 hc         1 5BB       0.042200
     71 H36         -9.5930    -6.1870     0.7870 hc         1 5BB       0.042700
     72 H37        -12.0180    -5.1390     2.2930 hc         1 5BB       0.041200
@<TRIPOS>BOND
     1    35    34 1
     2    34    33 1
     3    26    25 1
     4    33    32 1
     5    32    31 1
     6    30    31 1
     7    30    29 1
     8    29    28 1
     9    28    27 1
    10    25    27 2
    11    25    23 1
    12    24    23 2
    13    27    21 1
    14    23    22 1
    15    21    20 2
    16    22    20 1
    17    20    19 1
    18    18    17 1
    19    16    17 1
    20    16    15 1
    21    19    15 ar
    22    19    12 ar
    23    15    14 ar
    24    12    11 ar
    25    14    13 ar
    26    11    13 ar
    27    11     8 1
    28    10     8 2
    29     1     2 1
    30     1     7 1
    31     2     3 1
    32     4     3 1
    33     8     7 1
    34     8     9 2
    35     3     5 1
    36     7     6 1
    37     6     5 1
    38     1    36 1
    39     1    37 1
    40     2    38 1
    41     2    39 1
    42     4    40 1
    43     4    41 1
    44     4    42 1
    45     5    43 1
    46     5    44 1
    47     6    45 1
    48     6    46 1
    49    12    47 1
    50    13    48 1
    51    14    49 1
    52    17    50 1
    53    17    51 1
    54    18    52 1
    55    18    53 1
    56    18    54 1
    57    22    55 1
    58    28    56 1
    59    28    57 1
    60    29    58 1
    61    30    59 1
    62    31    60 1
    63    32    61 1
    64    33    62 1
    65    33    63 1
    66    34    64 1
    67    34    65 1
    68    35    66 1
    69    35    67 1
    70    35    68 1
    71    29    69 1
    72    30    70 1
    73    31    71 1
    74    32    72 1
@<TRIPOS>SUBSTRUCTURE
     1 5BB         1 TEMP              0 ****  ****    0 ROOT
