@<TRIPOS>MOLECULE
5BB
   72    74     1     0     0
SMALL
bcc


@<TRIPOS>ATOM
      1 CAU          0.0000     0.0000     0.0000 c3         1 5BB       0.234300
      2 CAS          1.5320     0.0000     0.0000 c3         1 5BB       0.140800
      3 NBG          2.0190     0.0000     1.3870 n3         1 5BB      -0.546600
      4 CAC          3.4770    -0.1730     1.4320 c3         1 5BB       0.190100
      5 CAT          1.6090     1.2210     2.0940 c3         1 5BB       0.140800
      6 CAV          0.0810     1.2700     2.1800 c3         1 5BB       0.234300
      7 NBH         -0.4680     1.1250     0.8230 n3         1 5BB      -0.535500
      8 SBI         -1.5830     2.2000     0.2380 sy         1 5BB       1.058200
      9 OAE         -1.4110     3.4010     0.9790 o          1 5BB      -0.587300
     10 OAF         -1.4920     2.1420    -1.1780 o          1 5BB      -0.587300
     11 CAZ         -3.1770     1.5800     0.6590 ca         1 5BB      -0.209500
     12 CAJ         -3.8340     0.7310    -0.2060 ca         1 5BB       0.056000
     13 CAH         -3.7630     1.9410     1.8620 ca         1 5BB       0.075000
     14 CAI         -5.0120     1.4600     2.2040 ca         1 5BB      -0.255000
     15 CBA         -5.6890     0.6100     1.3430 ca         1 5BB       0.260100
     16 OAY         -6.9150     0.1360     1.6780 os         1 5BB      -0.250900
     17 CAL         -7.4510     0.5550     2.9350 c3         1 5BB       0.189400
     18 CAB         -8.8310    -0.0760     3.1360 c3         1 5BB       0.003900
     19 CBD         -5.0960     0.2340     0.1290 ca         1 5BB      -0.239900
     20 CBE         -5.8060    -0.6700    -0.7940 cc         1 5BB       0.373500
     21 NAW         -7.0020    -1.1200    -0.4690 nd         1 5BB      -0.537300
     22 NAX         -5.2170    -1.0220    -1.9730 ns         1 5BB       0.026600
     23 CBF         -5.8630    -1.8480    -2.8230 c          1 5BB       0.600700
     24 OAD         -5.3520    -2.1740    -3.8820 o          1 5BB      -0.667500
     25 CBC         -7.1390    -2.3280    -2.4640 cc         1 5BB      -0.202500
     26 Br          -8.0890    -3.4890    -3.6150 br         1 5BB      -0.037700
     27 CBB         -7.6780    -1.9370    -1.2740 cd         1 5BB       0.181400
     28 CAR         -9.0400    -2.4360    -0.8660 c3         1 5BB       0.011800
     29 CAQ         -8.8860    -3.6690     0.0260 c3         1 5BB      -0.023400
     30 CAP        -10.2680    -4.1760     0.4400 c3         1 5BB      -0.027400
     31 CAO        -10.1140    -5.4100     1.3330 c3         1 5BB      -0.028400
     32 CAN        -11.4970    -5.9160     1.7470 c3         1 5BB      -0.029400
     33 CAM        -11.3430    -7.1500     2.6380 c3         1 5BB      -0.030400
     34 CAK        -12.7260    -7.6560     3.0520 c3         1 5BB      -0.028400
     35 CAA        -12.5710    -8.8900     3.9440 c3         1 5BB       0.006900
     36 H1          -0.3630    -0.9310     0.4180 h1         1 5BB       0.026450
     37 H2          -0.3630     0.1170    -1.0140 h1         1 5BB       0.026450
     38 H3           1.8920    -0.8860    -0.5080 h1         1 5BB       0.016450
     39 H4           1.8920     0.8860    -0.5080 h1         1 5BB       0.016450
     40 H6           3.7460    -1.1020     0.9460 h1         1 5BB       0.001033
     41 H7           3.9540     0.6540     0.9210 h1         1 5BB       0.001033
     42 H8           3.8050    -0.1970     2.4640 h1         1 5BB       0.001033
     43 H9           1.9680     2.0880     1.5530 h1         1 5BB       0.016450
     44 H10          2.0260     1.2140     3.0940 h1         1 5BB       0.016450
     45 H11         -0.2740     0.4580     2.8040 h1         1 5BB       0.026450
     46 H12         -0.2290     2.2200     2.5980 h1         1 5BB       0.026450
     47 H13         -3.3690     0.4460    -1.1420 ha         1 5BB       0.121000
     48 H14         -3.2380     2.6050     2.5380 ha         1 5BB       0.122000
     49 H15         -5.4630     1.7470     3.1460 ha         1 5BB       0.133000
     50 H16         -6.7900     0.2390     3.7330 h1         1 5BB       0.001700
     51 H17         -7.5430     1.6340     2.9470 h1         1 5BB       0.001700
     52 H18         -8.7270    -1.1510     3.2270 hc         1 5BB       0.014367
     53 H19         -9.2810     0.3210     4.0380 hc         1 5BB       0.014367
     54 H20         -9.4610     0.1550     2.2860 hc         1 5BB       0.014367
     55 H21         -4.3100    -0.6690    -2.2070 hn         1 5BB       0.191500
     56 H22         -9.6080    -2.6980    -1.7500 hc         1 5BB       0.034700
     57 H23         -9.5600    -1.6580    -0.3190 hc         1 5BB       0.034700
     58 H24         -8.3170    -3.4070     0.9100 hc         1 5BB       0.022200
     59 H25        -10.8360    -4.4390    -0.4440 hc         1 5BB       0.015200
     60 H26         -9.5460    -5.1470     2.2170 hc         1 5BB       0.015200
     61 H27        -12.0650    -6.1790     0.8620 hc         1 5BB       0.014700
     62 H28        -10.7740    -6.8880     3.5220 hc         1 5BB       0.014700
     63 H29        -10.8220    -7.9270     2.0920 hc         1 5BB       0.014700
     64 H30        -13.2460    -6.8780     3.5990 hc         1 5BB       0.012200
     65 H31        -13.2940    -7.9180     2.1680 hc         1 5BB       0.012200
     66 H32        -13.5510    -9.2520     4.2320 hc         1 5BB      -0.000300
     67 H33        -12.0080    -8.6270     4.8310 hc         1 5BB      -0.000300
     68 H34        -12.0460    -9.6650     3.3990 hc         1 5BB      -0.000300
     69 H5          -8.3650    -4.4470    -0.5200 hc         1 5BB       0.022200
     70 H35        -10.7890    -3.3990     0.9860 hc         1 5BB       0.015200
     71 H36         -9.5930    -6.1870     0.7870 hc         1 5BB       0.015200
     72 H37        -12.0180    -5.1390     2.2930 hc         1 5BB       0.014700
@<TRIPOS>BOND
     1     1     2 1   
     2     1     7 1   
     3     1    36 1   
     4     1    37 1   
     5     2     3 1   
     6     2    38 1   
     7     2    39 1   
     8     3     4 1   
     9     3     5 1   
    10     4    40 1   
    11     4    41 1   
    12     4    42 1   
    13     5     6 1   
    14     5    43 1   
    15     5    44 1   
    16     6     7 1   
    17     6    45 1   
    18     6    46 1   
    19     7     8 1   
    20     8     9 2   
    21     8    10 2   
    22     8    11 1   
    23    11    12 ar  
    24    11    13 ar  
    25    12    19 ar  
    26    12    47 1   
    27    13    14 ar  
    28    13    48 1   
    29    14    15 ar  
    30    14    49 1   
    31    15    16 1   
    32    15    19 ar  
    33    16    17 1   
    34    17    18 1   
    35    17    50 1   
    36    17    51 1   
    37    18    52 1   
    38    18    53 1   
    39    18    54 1   
    40    19    20 1   
    41    20    21 2   
    42    20    22 1   
    43    21    27 1   
    44    22    23 1   
    45    22    55 1   
    46    23    24 2   
    47    23    25 1   
    48    25    26 1   
    49    25    27 2   
    50    27    28 1   
    51    28    29 1   
    52    28    56 1   
    53    28    57 1   
    54    29    30 1   
    55    29    58 1   
    56    29    69 1   
    57    30    31 1   
    58    30    59 1   
    59    30    70 1   
    60    31    32 1   
    61    31    60 1   
    62    31    71 1   
    63    32    33 1   
    64    32    61 1   
    65    32    72 1   
    66    33    34 1   
    67    33    62 1   
    68    33    63 1   
    69    34    35 1   
    70    34    64 1   
    71    34    65 1   
    72    35    66 1   
    73    35    67 1   
    74    35    68 1   
@<TRIPOS>SUBSTRUCTURE
     1 5BB         1 TEMP              0 ****  ****    0 ROOT
