@<TRIPOS>MOLECULE
5BC
   73    76     1     0     0
SMALL
bcc


@<TRIPOS>ATOM
      1 C1          2.4150    2.6990   -2.9530 c2        1 5BC     -0.072000
      2 C2          3.3070    3.7690   -3.5170 c3        1 5BC     -0.177000
      3 C3          4.7340    3.5150   -3.1340 c2        1 5BC     -0.103000
      4 C4          5.1070    2.7580   -2.0740 c2        1 5BC     -0.204000
      5 C5          4.0440    2.3640   -1.1430 c2        1 5BC     -0.083000
      6 C6          2.8720    2.2710   -1.7650 c1        1 5BC     -0.159000
      7 C7         -0.8630    0.8930   -5.0210 c2        1 5BC     -0.291000
      8 C8         -0.7850    0.8810   -3.6360 c2        1 5BC      0.076000
      9 C9          0.3000    1.4880   -2.9630 c2        1 5BC     -0.250000
     10 C10         1.3110    2.1130   -3.6610 c2        1 5BC      0.091000
     11 C11         1.2520    2.1660   -5.1410 c3        1 5BC     -0.215000
     12 C12         0.1380    1.5070   -5.7970 c1        1 5BC     -0.153000
     13 C13        -1.9720    0.1870   -7.1990 c3        1 5BC     -0.192000
     14 C14        -3.8480    1.1490   -9.7190 cv        1 5BC     -0.189000
     15 C15        -4.4610   -0.0930   -9.9800 c2        1 5BC     -0.264000
     16 C16        -4.1800   -1.2200   -9.3160 c1        1 5BC      0.134000
     17 C17        -2.0790    1.5280   -7.8100 c2        1 5BC      0.058000
     18 C18        -2.8700    1.8180   -8.8450 cv        1 5BC     -0.105000
     19 C19         2.6240    5.1680   -7.3040 c2        1 5BC     -0.162000
     20 C20         4.6070    5.8380   -6.0970 c3        1 5BC     -0.177000
     21 C21         4.9480    6.7000   -7.3270 c2        1 5BC      0.097000
     22 C22         3.9090    7.0340   -8.2330 c2        1 5BC     -0.306000
     23 C23         2.7740    6.2550   -8.2160 c2        1 5BC      0.036000
     24 C24         3.4930    4.8990   -6.2790 c1        1 5BC     -0.248000
     25 C25         6.9510    6.1410   -6.3300 c3        1 5BC     -0.192000
     26 N26         6.2730    6.8730   -7.4260 n3        1 5BC     -0.125000
     27 C27         5.9210    5.3940   -5.5640 c1        1 5BC      0.040000
     28 C28         7.6860    8.9890   -7.4400 c2        1 5BC      0.339000
     29 O29         7.8750   10.0320   -8.1090 o         1 5BC     -0.537000
     30 O30         8.0190    8.7900   -6.2410 o         1 5BC     -0.537000
     31 C31         6.9900    7.8210   -8.2320 c3        1 5BC     -0.155000
     32 O32         1.4550    4.4140   -7.4450 os        1 5BC     -0.228000
     33 C33         1.6480    3.2110   -8.1950 c3        1 5BC     -0.044000
     34 C34         1.6260    3.4760   -9.6810 c3        1 5BC     -0.239000
     35 C35        -3.1650    3.0080   -9.6460 cv        1 5BC     -0.224000
     36 O36        -4.0680    2.3300  -10.4270 os        1 5BC      0.016000
     37 O38        -2.9280   -0.2870   -5.0610 o         1 5BC     -0.325000
     38 C39        -5.5040   -0.1520  -11.0600 c3        1 5BC     -0.083000
     39 C40        -4.8800   -0.0910  -12.4400 c3        1 5BC     -0.162000
     40 C41        -5.9340   -0.1310  -13.5160 c3        1 5BC     -0.210000
     41 H2          3.2350    3.8130   -4.6730 hc        1 5BC      0.175500
     42 H3          3.0180    4.7980   -3.1740 hc        1 5BC      0.175500
     43 H4          5.4740    4.0190   -3.7880 ha        1 5BC      0.186000
     44 H5          6.1490    2.5230   -1.8320 ha        1 5BC      0.134000
     45 H6          4.2360    2.2840   -0.0710 ha        1 5BC      0.147000
     46 H8          0.3360    1.4470   -1.8620 ha        1 5BC      0.147000
     47 H9         -1.5740    0.3870   -3.0400 ha        1 5BC      0.144000
     48 H11         2.2130    1.7530   -5.5780 hc        1 5BC      0.204500
     49 H12         1.2580    3.2530   -5.5040 hc        1 5BC      0.204500
     50 H16        -0.9760   -0.2470   -7.5070 hc        1 5BC      0.134000
     51 H17        -2.7870   -0.5000   -7.5610 hc        1 5BC      0.134000
     52 H18        -1.4150    2.3040   -7.3700 ha        1 5BC      0.181000
     53 H22         1.9620    6.4540   -8.9360 ha        1 5BC      0.130000
     54 H23         4.0440    7.8470   -8.9570 ha        1 5BC      0.146000
     55 H24         4.2150    6.5510   -5.2880 hc        1 5BC      0.206000
     56 H25         7.4950    6.8920   -5.6610 h1        1 5BC      0.195000
     57 H27         7.7270    5.4540   -6.7670 h1        1 5BC      0.195000
     58 H31         7.8030    7.2650   -8.7750 h1        1 5BC      0.101500
     59 H31A        6.2890    8.2740   -8.9830 h1        1 5BC      0.101500
     60 H33         2.6100    2.7190   -7.8930 h1        1 5BC      0.100000
     61 H33A        0.7840    2.5610   -7.8760 h1        1 5BC      0.100000
     62 H34         1.7720    2.5220  -10.2400 hc        1 5BC      0.072000
     63 H34A        2.4390    4.1890   -9.9610 hc        1 5BC      0.072000
     64 H35         0.6500    3.9250   -9.9840 hc        1 5BC      0.072000
     65 H35A       -2.9310    4.0470   -9.7650 h4        1 5BC      0.203000
     66 H39        -6.2030    0.7160  -10.9210 hc        1 5BC      0.090000
     67 H39A       -6.1080   -1.0930  -10.9590 hc        1 5BC      0.090000
     68 H40        -4.2790    0.8530  -12.5270 hc        1 5BC      0.091000
     69 H40A       -4.1710   -0.9500  -12.5700 hc        1 5BC      0.091000
     70 H41        -5.4570   -0.0820  -14.5250 hc        1 5BC      0.069000
     71 H41A       -6.5300   -1.0730  -13.4530 hc        1 5BC      0.069000
     72 H41B       -6.6340    0.7340  -13.4150 hc        1 5BC      0.069000
     73 C37        -1.9980    0.2390   -5.6890 c2        1 5BC      0.296000
@<TRIPOS>BOND
     1    1    2 1   
     2    1    6 1   
     3    1   10 1   
     4    2    3 1   
     5    2   41 1   
     6    2   42 1   
     7    3    4 1   
     8    3   43 1   
     9    4    5 1   
    10    4   44 1   
    11    5    6 1   
    12    5   45 1   
    13    7    8 1   
    14    7   12 1   
    15    7   73 1   
    16    8    9 1   
    17    8   47 1   
    18    9   10 1   
    19    9   46 1   
    20   10   11 1   
    21   11   12 1   
    22   11   48 1   
    23   11   49 1   
    24   13   17 1   
    25   13   50 1   
    26   13   51 1   
    27   13   73 1   
    28   14   15 1   
    29   14   18 1   
    30   14   36 1   
    31   15   16 1   
    32   15   38 1   
    33   17   18 1   
    34   17   52 1   
    35   18   35 1   
    36   19   23 1   
    37   19   24 1   
    38   19   32 1   
    39   20   21 1   
    40   20   24 1   
    41   20   27 1   
    42   20   55 1   
    43   21   22 1   
    44   21   26 1   
    45   22   23 1   
    46   22   54 1   
    47   23   53 1   
    48   25   26 1   
    49   25   27 1   
    50   25   56 1   
    51   25   57 1   
    52   26   31 1   
    53   28   29 1   
    54   28   30 1   
    55   28   31 1   
    56   31   58 1   
    57   31   59 1   
    58   32   33 1   
    59   33   34 1   
    60   33   60 1   
    61   33   61 1   
    62   34   62 1   
    63   34   63 1   
    64   34   64 1   
    65   35   36 1   
    66   35   65 1   
    67   37   73 1   
    68   38   39 1   
    69   38   66 1   
    70   38   67 1   
    71   39   40 1   
    72   39   68 1   
    73   39   69 1   
    74   40   70 1   
    75   40   71 1   
    76   40   72 1   
@<TRIPOS>SUBSTRUCTURE
     1 5BC         1 TEMP              0 ****  ****    0 ROOT
