@<TRIPOS>MOLECULE
molecule
   73    77     1     0     0
SMALL
bcc


@<TRIPOS>ATOM
      1 C1           0.0000     0.0000     0.0000 cp         1 5BC      -0.041000
      2 C2           1.3940     0.0000     0.0000 ca         1 5BC      -0.115500
      3 C3           2.0820     0.0000     1.1960 ca         1 5BC      -0.127500
      4 C4           1.3910     0.0010     2.3940 ca         1 5BC      -0.125000
      5 C5           0.0070     0.0010     2.4010 ca         1 5BC      -0.127500
      6 C6          -0.6920     0.0010     1.2100 ca         1 5BC      -0.115500
      7 C7          -2.1360     0.0190    -3.6800 ca         1 5BC      -0.162600
      8 C8          -2.8320     0.0140    -2.4680 ca         1 5BC      -0.088000
      9 C9          -2.1400     0.0080    -1.2790 ca         1 5BC      -0.133500
     10 C10         -0.7440     0.0060    -1.2830 cp         1 5BC      -0.013000
     11 C11         -0.0480     0.0120    -2.4920 ca         1 5BC      -0.133500
     12 C12         -0.7380     0.0180    -3.6830 ca         1 5BC      -0.088000
     13 C13         -2.3330     0.7380    -6.1260 ca         1 5BC      -0.218600
     14 C14         -1.3190     2.0960    -8.3170 ca         1 5BC       0.179100
     15 C15         -2.4410     1.2870    -8.4610 ca         1 5BC      -0.129300
     16 C16         -2.9490     0.6100    -7.3750 ca         1 5BC      -0.033000
     17 C17         -1.2060     1.5530    -5.9850 ca         1 5BC      -0.064000
     18 C18         -0.7060     2.2260    -7.0760 ca         1 5BC      -0.235000
     19 C19          3.4510     6.5470   -11.4490 ca         1 5BC       0.083100
     20 C20          5.0000     8.0020   -12.5630 ca         1 5BC      -0.076800
     21 C21          5.6880     8.1960   -11.3520 ca         1 5BC      -0.037200
     22 C22          5.2430     7.5570   -10.2000 ca         1 5BC      -0.079000
     23 C23          4.1350     6.7400   -10.2510 ca         1 5BC      -0.216000
     24 C24          3.8780     7.1730   -12.6030 ca         1 5BC      -0.123000
     25 C25          6.7330     9.4010   -12.9370 cc         1 5BC      -0.061100
     26 N26          6.7380     9.0520   -11.6140 na         1 5BC      -0.016400
     27 C27          5.7110     8.8010   -13.5650 cd         1 5BC      -0.251200
     28 C28          8.8180     8.5040   -10.4910 c          1 5BC       0.870600
     29 O29          9.8290     8.7220    -9.6340 o          1 5BC      -0.826800
     30 O30          8.7960     7.4950   -11.1550 o          1 5BC      -0.826800
     31 C31          7.7110     9.5190   -10.6240 c3         1 5BC      -0.076700
     32 O32          2.3630     5.7320   -11.4820 os         1 5BC      -0.340900
     33 C33          1.9790     5.1110   -10.2540 c3         1 5BC       0.148400
     34 C34          0.7430     4.2390   -10.4880 c3         1 5BC      -0.085400
     35 C35          0.3320     3.5750    -9.1730 c3         1 5BC       0.135400
     36 O36         -0.8220     2.7610    -9.3910 os         1 5BC      -0.321900
     37 O38         -3.9360    -0.5720    -5.0460 o          1 5BC      -0.538100
     38 C39         -3.1010     1.1500    -9.8080 c3         1 5BC      -0.025100
     39 C40         -2.3920     0.0610   -10.6160 c3         1 5BC      -0.079400
     40 C41         -3.0630    -0.0790   -11.9840 c3         1 5BC      -0.092100
     41 H2           1.9370    -0.0010    -0.9380 ha         1 5BC       0.134500
     42 H3           3.1650     0.0000     1.1970 ha         1 5BC       0.130500
     43 H4           1.9350     0.0010     3.3310 ha         1 5BC       0.129000
     44 H5          -0.5300     0.0020     3.3420 ha         1 5BC       0.130500
     45 H6          -1.7750     0.0010     1.2160 ha         1 5BC       0.134500
     46 H8          -3.9150     0.0150    -2.4650 ha         1 5BC       0.147000
     47 H9          -2.6790     0.0030    -0.3390 ha         1 5BC       0.137000
     48 H11          1.0350     0.0110    -2.4930 ha         1 5BC       0.137000
     49 H12         -0.1980     0.0220    -4.6220 ha         1 5BC       0.147000
     50 H16         -3.8220    -0.0200    -7.4880 ha         1 5BC       0.155000
     51 H17         -0.7280     1.6540    -5.0180 ha         1 5BC       0.147000
     52 H18          0.1680     2.8580    -6.9680 ha         1 5BC       0.143000
     53 H22          5.7670     7.7010    -9.2630 ha         1 5BC       0.136000
     54 H23          3.7920     6.2450    -9.3510 ha         1 5BC       0.116000
     55 H24          3.3460     7.0210   -13.5340 ha         1 5BC       0.127000
     56 H25          7.4490    10.0640   -13.4080 h4         1 5BC       0.157000
     57 H27          5.4580     8.8900   -14.6150 ha         1 5BC       0.135000
     58 H31          8.1270    10.4670   -10.9440 h1         1 5BC       0.049700
     59 H31A         7.2200     9.6460    -9.6670 h1         1 5BC       0.049700
     60 H33          1.7490     5.8740    -9.5200 h1         1 5BC       0.032700
     61 H33A         2.7920     4.4940    -9.8920 h1         1 5BC       0.032700
     62 H34         -0.0700     4.8560   -10.8510 hc         1 5BC       0.066200
     63 H34A         0.9730     3.4760   -11.2210 hc         1 5BC       0.066200
     64 H35          1.1450     2.9590    -8.8090 h1         1 5BC       0.038700
     65 H35A         0.1020     4.3380    -8.4390 h1         1 5BC       0.038700
     66 H39         -4.1420     0.8800    -9.6750 hc         1 5BC       0.052700
     67 H39A        -3.0380     2.0920   -10.3390 hc         1 5BC       0.052700
     68 H40         -2.4560    -0.8820   -10.0850 hc         1 5BC       0.045700
     69 H40A        -1.3520     0.3300   -10.7500 hc         1 5BC       0.045700
     70 H41         -4.0900    -0.3970   -11.8520 hc         1 5BC       0.032367
     71 H41A        -3.0440     0.8760   -12.4950 hc         1 5BC       0.032367
     72 H41B        -2.5300    -0.8150   -12.5740 hc         1 5BC       0.032367
     73 C37         -2.8780     0.0190    -4.9570 c          1 5BC       0.597300
@<TRIPOS>BOND
     1     1     2 ar
     2     1     6 ar
     3     1    10 1
     4     2     3 ar
     5     3     4 ar
     6     4     5 ar
     7     5     6 ar
     8     7     8 ar
     9     7    12 ar
    10     7    73 1
    11     8     9 ar
    12     9    10 ar
    13    10    11 ar
    14    11    12 ar
    15    13    16 ar
    16    13    17 ar
    17    13    73 1
    18    14    15 ar
    19    14    18 ar
    20    14    36 1
    21    15    16 ar
    22    15    38 1
    23    17    18 ar
    24    19    23 ar
    25    19    24 ar
    26    19    32 1
    27    20    21 ar
    28    20    24 ar
    29    20    27 1
    30    21    22 ar
    31    21    26 1
    32    22    23 ar
    33    25    26 1
    34    25    27 2
    35    26    31 1
    36    28    29 1
    37    28    30 1
    38    28    31 1
    39    32    33 1
    40    33    34 1
    41    34    35 1
    42    35    36 1
    43    73    37 2
    44    38    39 1
    45    39    40 1
    46     2    41 1
    47     3    42 1
    48     4    43 1
    49     5    44 1
    50     6    45 1
    51     8    46 1
    52     9    47 1
    53    11    48 1
    54    12    49 1
    55    16    50 1
    56    17    51 1
    57    18    52 1
    58    22    53 1
    59    23    54 1
    60    24    55 1
    61    25    56 1
    62    27    57 1
    63    31    58 1
    64    31    59 1
    65    33    60 1
    66    33    61 1
    67    34    62 1
    68    34    63 1
    69    35    64 1
    70    35    65 1
    71    38    66 1
    72    38    67 1
    73    39    68 1
    74    39    69 1
    75    40    70 1
    76    40    71 1
    77    40    72 1
@<TRIPOS>SUBSTRUCTURE
     1 5BC         1 TEMP              0 ****  ****    0 ROOT
