@<TRIPOS>MOLECULE
5BD
   54    56     1     0     0
SMALL
bcc


@<TRIPOS>ATOM
      1 C1           0.0000     0.0000     0.0000 ca         1 5BD      -0.032000
      2 C2           1.3800     0.0000     0.0000 ca         1 5BD      -0.135000
      3 C3           2.0840     0.0000     1.1990 ca         1 5BD      -0.074400
      4 C5          -2.8970     0.0040     4.9120 ca         1 5BD      -0.063000
      5 C6          -4.2890     0.0050     4.9050 ca         1 5BD      -0.074400
      6 C7          -4.9840     0.0050     3.7000 ca         1 5BD      -0.135000
      7 C8          -4.3010     0.0070     2.5010 ca         1 5BD      -0.032000
      8 C9           4.1600     0.6720     2.1340 c          1 5BD       0.554100
      9 C11         -0.6980     0.0010     1.2070 ca         1 5BD      -0.159600
     10 C12          0.0110     0.0020     2.4240 ca         1 5BD      -0.112600
     11 C13         -0.7220     0.0030     3.7070 c          1 5BD       0.634300
     12 C14         -2.1730     0.0030     1.2120 c          1 5BD       0.651300
     13 O1           3.5650     1.2080     3.0450 o          1 5BD      -0.598600
     14 N1           3.4780    -0.0000     1.1860 ns         1 5BD      -0.041600
     15 C4           1.4010     0.0020     2.4120 ca         1 5BD      -0.063000
     16 O2          -0.1110     0.0040     4.7570 o          1 5BD      -0.526100
     17 O3          -2.7840     0.0020     0.1610 o          1 5BD      -0.564100
     18 C15         -2.9070     0.0050     2.4930 ca         1 5BD      -0.159600
     19 C16         -2.2000     0.0030     3.7100 ca         1 5BD      -0.112600
     20 N2          -4.9900     0.0060     6.1110 ns         1 5BD      -0.041600
     21 C10         -4.5030     0.6780     7.1720 c          1 5BD       0.554100
     22 O4          -3.4170     1.2120     7.1050 o          1 5BD      -0.598600
     23 H1          -0.5410     0.0000    -0.9380 ha         1 5BD       0.125000
     24 H2           1.9180    -0.0030    -0.9400 ha         1 5BD       0.108000
     25 H5          -2.3590     0.0050     5.8520 ha         1 5BD       0.170000
     26 H7          -6.0680     0.0050     3.7030 ha         1 5BD       0.108000
     27 H8          -4.8480     0.0070     1.5660 ha         1 5BD       0.125000
     28 C17          5.6630     0.7580     2.0620 c3         1 5BD       0.083800
     29 H4           1.9510     0.0020     3.3450 ha         1 5BD       0.170000
     30 HN2         -5.9060    -0.3960     6.1540 hn         1 5BD       0.167500
     31 C18         -5.3080     0.7650     8.4430 c3         1 5BD       0.083800
     32 H81          3.9720    -0.5220     0.4890 hn         1 5BD       0.167500
     33 H9           6.0840    -0.2400     2.0950 h1         1 5BD       0.020950
     34 N3           6.1640     1.5390     3.2020 n3         1 5BD      -0.512600
     35 H10          5.9530     1.2420     1.1370 h1         1 5BD       0.020950
     36 H11         -5.4900    -0.2320     8.8250 h1         1 5BD       0.020950
     37 H12         -6.2550     1.2500     8.2380 h1         1 5BD       0.020950
     38 N4          -4.5650     1.5440     9.4420 n3         1 5BD      -0.512600
     39 C19          7.6270     1.4470     3.3000 c3         1 5BD       0.174850
     40 C20          5.7290     2.9390     3.1130 c3         1 5BD       0.174850
     41 H13          4.7820     3.0570     3.6260 h1         1 5BD       0.005533
     42 H14          6.4720     3.5780     3.5760 h1         1 5BD       0.005533
     43 H15          5.6130     3.2160     2.0720 h1         1 5BD       0.005533
     44 H16          7.9140     0.4160     3.4660 h1         1 5BD       0.005533
     45 H17          7.9720     2.0550     4.1280 h1         1 5BD       0.005533
     46 H18          8.0740     1.8030     2.3800 h1         1 5BD       0.005533
     47 C21         -4.4260     2.9450     9.0200 c3         1 5BD       0.174850
     48 C22         -5.2030     1.4540    10.7620 c3         1 5BD       0.174850
     49 H19         -4.3790     3.5830     9.8940 h1         1 5BD       0.005533
     50 H20         -3.5170     3.0590     8.4400 h1         1 5BD       0.005533
     51 H21         -5.2780     3.2260     8.4130 h1         1 5BD       0.005533
     52 H22         -6.2230     1.8120    10.6950 h1         1 5BD       0.005533
     53 H23         -5.2030     0.4220    11.0930 h1         1 5BD       0.005533
     54 H24         -4.6530     2.0600    11.4710 h1         1 5BD       0.005533
@<TRIPOS>BOND
     1     1     2 ar  
     2     1     9 ar  
     3     1    23 1   
     4     2     3 ar  
     5     2    24 1   
     6     3    14 1   
     7     3    15 ar  
     8     4     5 ar  
     9     4    19 ar  
    10     4    25 1   
    11     5     6 ar  
    12     5    20 1   
    13     6     7 ar  
    14     6    26 1   
    15     7    18 ar  
    16     7    27 1   
    17     8    13 2   
    18     8    14 1   
    19     8    28 1   
    20     9    10 ar  
    21     9    12 1   
    22    10    11 1   
    23    10    15 ar  
    24    11    16 2   
    25    11    19 1   
    26    12    17 2   
    27    12    18 1   
    28    14    32 1   
    29    15    29 1   
    30    18    19 ar  
    31    20    21 1   
    32    20    30 1   
    33    21    22 2   
    34    21    31 1   
    35    28    33 1   
    36    28    34 1   
    37    28    35 1   
    38    31    36 1   
    39    31    37 1   
    40    31    38 1   
    41    34    39 1   
    42    34    40 1   
    43    38    47 1   
    44    38    48 1   
    45    39    44 1   
    46    39    45 1   
    47    39    46 1   
    48    40    41 1   
    49    40    42 1   
    50    40    43 1   
    51    47    49 1   
    52    47    50 1   
    53    47    51 1   
    54    48    52 1   
    55    48    53 1   
    56    48    54 1   
@<TRIPOS>SUBSTRUCTURE
     1 5BD         1 TEMP              0 ****  ****    0 ROOT
