@<TRIPOS>MOLECULE
molecule
   56    59     1     0     0
SMALL
bcc


@<TRIPOS>ATOM
      1 C1           0.0000     0.0000     0.0000 c3         1 5BE       0.166300
      2 C2           6.1540    -2.6240     1.4160 cc         1 5BE       0.470400
      3 C3           6.5320    -1.3390     2.0300 cc         1 5BE      -0.061200
      4 C4           5.6600    -0.3630     2.5140 cd         1 5BE      -0.301900
      5 C5           6.4530     0.6890     3.0100 cd         1 5BE       0.371600
      6 N6           7.7100     0.3770     2.8400 nc         1 5BE      -0.498800
      7 N7           7.7940    -0.8830     2.2380 na         1 5BE      -0.040600
      8 C8           5.9390     1.9630     3.6310 c3         1 5BE      -0.115400
      9 C9           4.1880    -0.4210     2.5070 c          1 5BE       0.715700
     10 O10          3.5950    -0.9040     3.4530 o          1 5BE      -0.595100
     11 N11          3.4990     0.0590     1.4530 ns         1 5BE      -0.569900
     12 C12          2.0360     0.0000     1.4460 c3         1 5BE       0.118700
     13 C13          1.5300     0.0000     0.0000 c3         1 5BE      -0.093900
     14 N14         -0.4910     1.1890     0.7080 n3         1 5BE      -0.735600
     15 C15         -0.0570     1.1880     2.1120 c3         1 5BE       0.166300
     16 C16          1.4720     1.2220     2.1750 c3         1 5BE      -0.093900
     17 N17          4.9240    -3.0420     1.2330 nd         1 5BE      -0.556100
     18 N18          7.0350    -3.5630     0.9440 na         1 5BE      -0.264300
     19 C19          6.2850    -4.6110     0.4510 ca         1 5BE      -0.089200
     20 C20          4.9380    -4.2550     0.6470 ca         1 5BE       0.095400
     21 C21          3.9280    -5.1360     0.2370 ca         1 5BE      -0.062000
     22 C22          4.2590    -6.3270    -0.3440 ca         1 5BE      -0.094300
     23 C23          5.5890    -6.6790    -0.5330 ca         1 5BE      -0.098000
     24 C24          6.5990    -5.8260    -0.1430 ca         1 5BE      -0.131000
     25 C25          3.1690    -7.2700    -0.7830 c3         1 5BE      -0.027400
     26 C26          3.2810    -7.5120    -2.2890 c3         1 5BE      -0.086100
     27 C27          3.3140    -8.5990    -0.0400 c3         1 5BE      -0.086100
     28 C28         -1.9520     1.2950     0.6100 c3         1 5BE       0.153100
     29 H1          -0.3600     0.0170    -1.0220 h1         1 5BE       0.035950
     30 H1A         -0.3600    -0.8910     0.5010 h1         1 5BE       0.035950
     31 HN7          8.6380    -1.3620     1.9950 hn         1 5BE       0.328700
     32 H8           6.7660     2.5150     4.0600 hc         1 5BE       0.058033
     33 H8A          5.2230     1.7220     4.4070 hc         1 5BE       0.058033
     34 H8B          5.4580     2.5660     2.8710 hc         1 5BE       0.058033
     35 HN11         3.9880     0.4550     0.6750 hn         1 5BE       0.313500
     36 H12          1.7020    -0.9020     1.9440 h1         1 5BE       0.082700
     37 H13          1.8910     0.8860    -0.5080 hc         1 5BE       0.054700
     38 H13A         1.8910    -0.8870    -0.5080 hc         1 5BE       0.054700
     39 H15         -0.4580     2.0610     2.6130 h1         1 5BE       0.035950
     40 H15A        -0.4170     0.2890     2.5990 h1         1 5BE       0.035950
     41 H16          1.7910     1.2030     3.2100 hc         1 5BE       0.054700
     42 H16A         1.8320     2.1250     1.6960 hc         1 5BE       0.054700
     43 HN18         8.0210    -3.4370     0.8240 hn         1 5BE       0.297700
     44 H21          2.8870    -4.8720     0.3790 ha         1 5BE       0.147000
     45 H23          5.8340    -7.6270    -0.9950 ha         1 5BE       0.137000
     46 H24          7.6350    -6.1060    -0.2940 ha         1 5BE       0.128000
     47 H25          2.2030    -6.8340    -0.5580 hc         1 5BE       0.056700
     48 H26          4.1300    -8.1550    -2.4890 hc         1 5BE       0.036700
     49 H26A         2.3760    -7.9880    -2.6470 hc         1 5BE       0.036700
     50 H26B         3.4180    -6.5660    -2.7990 hc         1 5BE       0.036700
     51 H27          4.1670    -9.1400    -0.4330 hc         1 5BE       0.036700
     52 H27A         2.4170    -9.1900    -0.1780 hc         1 5BE       0.036700
     53 H27B         3.4630    -8.4090     1.0160 hc         1 5BE       0.036700
     54 H28         -2.4090     0.4360     1.0860 h1         1 5BE       0.031367
     55 H28A        -2.2420     1.3260    -0.4340 h1         1 5BE       0.031367
     56 H28B        -2.2830     2.2010     1.1040 h1         1 5BE       0.031367
@<TRIPOS>BOND
     1     1    13 1
     2     1    14 1
     3     2     3 1
     4     2    17 2
     5     2    18 1
     6     3     4 2
     7     3     7 1
     8     4     5 1
     9     4     9 1
    10     5     6 2
    11     5     8 1
    12     6     7 1
    13     9    10 2
    14     9    11 1
    15    11    12 1
    16    12    13 1
    17    12    16 1
    18    14    15 1
    19    14    28 1
    20    15    16 1
    21    17    20 1
    22    18    19 1
    23    19    20 ar
    24    19    24 ar
    25    20    21 ar
    26    21    22 ar
    27    22    23 ar
    28    22    25 1
    29    23    24 ar
    30    25    26 1
    31    25    27 1
    32     1    29 1
    33     1    30 1
    34     7    31 1
    35     8    32 1
    36     8    33 1
    37     8    34 1
    38    11    35 1
    39    12    36 1
    40    13    37 1
    41    13    38 1
    42    15    39 1
    43    15    40 1
    44    16    41 1
    45    16    42 1
    46    18    43 1
    47    21    44 1
    48    23    45 1
    49    24    46 1
    50    25    47 1
    51    26    48 1
    52    26    49 1
    53    26    50 1
    54    27    51 1
    55    27    52 1
    56    27    53 1
    57    28    54 1
    58    28    55 1
    59    28    56 1
@<TRIPOS>SUBSTRUCTURE
     1 5BE         1 TEMP              0 ****  ****    0 ROOT
