@<TRIPOS>MOLECULE
molecule
   82    86     1     0     0
SMALL
bcc


@<TRIPOS>ATOM
      1 C01          0.0000     0.0000     0.0000 ca         1 5BF      -0.158500
      2 C02          1.3800     0.0000     0.0000 ca         1 5BF      -0.105000
      3 C03          2.0720     0.0000     1.1960 ca         1 5BF      -0.132300
      4 C04          3.5800    -0.0080     1.1780 c3         1 5BF      -0.037100
      5 C05          1.3850     0.0130     2.3960 ca         1 5BF      -0.105000
      6 C06          0.0040     0.0250     2.4020 ca         1 5BF      -0.158500
      7 C07         -0.6930     0.0230     1.2010 ca         1 5BF       0.126100
      8 O08         -2.0520     0.0370     1.2000 os         1 5BF      -0.345900
      9 C09         -2.7220    -0.9520     0.4170 c3         1 5BF       0.144400
     10 C10         -3.4180    -1.9510     1.3450 c3         1 5BF      -0.105400
     11 C11         -3.8820    -3.1630     0.5320 c3         1 5BF      -0.119400
     12 C12         -4.7380    -4.0690     1.4190 c3         1 5BF       0.144400
     13 O13         -4.6540    -5.4180     0.9580 os         1 5BF      -0.343900
     14 C14         -3.4730    -6.0600     1.1460 ca         1 5BF       0.121100
     15 C15         -2.8990    -6.1000     2.4090 ca         1 5BF      -0.162000
     16 C16         -1.6890    -6.7430     2.5950 ca         1 5BF      -0.103500
     17 C17         -2.8420    -6.6840     0.0790 ca         1 5BF      -0.162000
     18 C18         -1.6300    -7.3190     0.2700 ca         1 5BF      -0.103500
     19 C19         -1.0510    -7.3420     1.5260 ca         1 5BF      -0.110300
     20 C20          0.2790    -8.0230     1.7300 c3         1 5BF      -0.019100
     21 C21          1.3840    -7.1780     1.0920 c3         1 5BF      -0.177400
     22 C22          2.7270    -7.6080     1.6230 c          1 5BF       0.598700
     23 O23          2.9640    -8.7850     1.7920 o          1 5BF      -0.515100
     24 C24          3.7460    -6.6040     1.9350 cc         1 5BF      -0.198900
     25 N25          3.5950    -5.2490     1.8080 na         1 5BF      -0.121100
     26 C26          5.0270    -6.8520     2.3960 cc         1 5BF      -0.136000
     27 C27          5.6480    -5.6210     2.5900 cc         1 5BF      -0.141000
     28 C28          4.7390    -4.6400     2.2450 cd         1 5BF      -0.163900
     29 C29          4.9400    -3.1860     2.3710 c          1 5BF       0.702700
     30 O30          5.9000    -2.7520     2.9770 o          1 5BF      -0.581100
     31 N31          4.0430    -2.3300     1.8020 ns         1 5BF      -0.569900
     32 C32          4.1150    -0.9420     2.2620 c3         1 5BF       0.035700
     33 C33          3.2870    -0.7880     3.5120 c          1 5BF       0.680100
     34 O34          2.4600    -1.6280     3.7980 o          1 5BF      -0.601100
     35 N35          3.4660     0.2830     4.3110 ns         1 5BF      -0.577900
     36 C36          2.7450     0.3750     5.5830 c3         1 5BF      -0.005300
     37 C37          1.5950     1.3380     5.4400 c          1 5BF       0.545900
     38 O38          1.4130     1.9090     4.3930 o          1 5BF      -0.505100
     39 C39          3.6970     0.8730     6.6730 c3         1 5BF      -0.037100
     40 C40          4.7790    -0.1510     6.9010 ca         1 5BF      -0.091300
     41 C41          5.9530    -0.0900     6.1730 ca         1 5BF      -0.119500
     42 C42          6.9450    -1.0280     6.3820 ca         1 5BF      -0.117000
     43 C43          6.7640    -2.0290     7.3200 ca         1 5BF      -0.120000
     44 C44          5.5920    -2.0900     8.0480 ca         1 5BF      -0.117000
     45 C45          4.6010    -1.1470     7.8430 ca         1 5BF      -0.119500
     46 H1          -0.5420    -0.0170    -0.9380 ha         1 5BF       0.137500
     47 H2           1.9210     0.0160    -0.9380 ha         1 5BF       0.151500
     48 H3           3.9250    -0.3480     0.2090 hc         1 5BF       0.060200
     49 H4           3.9460     0.9960     1.3570 hc         1 5BF       0.060200
     50 H5           1.9300     0.0790     3.3300 ha         1 5BF       0.151500
     51 H6          -0.5340     0.0900     3.3400 ha         1 5BF       0.137500
     52 H7          -3.4590    -0.4720    -0.2160 h1         1 5BF       0.046700
     53 H8          -2.0010    -1.4740    -0.2000 h1         1 5BF       0.046700
     54 H9          -4.2760    -1.4780     1.8080 hc         1 5BF       0.055200
     55 H10         -2.7260    -2.2750     2.1130 hc         1 5BF       0.055200
     56 H11         -4.4680    -2.8280    -0.3150 hc         1 5BF       0.054200
     57 H12         -3.0180    -3.7140     0.1790 hc         1 5BF       0.054200
     58 H13         -5.7700    -3.7390     1.3800 h1         1 5BF       0.054200
     59 H14         -4.3810    -4.0140     2.4400 h1         1 5BF       0.054200
     60 H15         -3.4330    -5.6940     3.2590 ha         1 5BF       0.140500
     61 H16         -1.2470    -6.7870     3.5830 ha         1 5BF       0.134500
     62 H17         -3.3000    -6.6750    -0.9020 ha         1 5BF       0.140500
     63 H18         -1.1470    -7.8230    -0.5580 ha         1 5BF       0.134500
     64 H19          0.4720    -8.1300     2.7900 hc         1 5BF       0.063200
     65 H20          0.2590    -9.0020     1.2650 hc         1 5BF       0.063200
     66 H21          1.3630    -7.3100     0.0170 hc         1 5BF       0.062200
     67 H22          1.2210    -6.1340     1.3300 hc         1 5BF       0.062200
     68 H23          2.8470    -4.7940     1.3230 hn         1 5BF       0.306700
     69 H24          5.5020    -7.8230     2.4660 ha         1 5BF       0.169000
     70 H25          6.6950    -5.4660     2.8240 ha         1 5BF       0.169000
     71 H26          3.6480    -2.5410     0.9070 hn         1 5BF       0.324500
     72 H27          5.1450    -0.6880     2.4790 h1         1 5BF       0.089700
     73 H28          4.0640     1.0300     4.0200 hn         1 5BF       0.323500
     74 H29          2.3650    -0.6030     5.8540 h1         1 5BF       0.116700
     75 H30          0.9310     1.5160     6.2770 h4         1 5BF       0.004200
     76 H31          4.1440     1.8090     6.3610 hc         1 5BF       0.056700
     77 H32          3.1440     1.0260     7.5920 hc         1 5BF       0.056700
     78 H33          6.0940     0.6930     5.4380 ha         1 5BF       0.124500
     79 H34          7.8650    -0.9810     5.8110 ha         1 5BF       0.132500
     80 H35          7.5420    -2.7650     7.4820 ha         1 5BF       0.132000
     81 H36          5.4510    -2.8720     8.7840 ha         1 5BF       0.132500
     82 H37          3.6820    -1.1950     8.4140 ha         1 5BF       0.124500
@<TRIPOS>BOND
     1    10     9 1
     2    10    11 1
     3    13    12 1
     4    13    14 1
     5    15    16 ar
     6    15    14 ar
     7    12    11 1
     8    16    19 ar
     9    14    17 ar
    10     9     8 1
    11     8     7 1
    12    19    20 1
    13    19    18 ar
    14    17    18 ar
    15     7     1 ar
    16     7     6 ar
    17     1     2 ar
    18    20    21 1
    19    21    22 1
    20     6     5 ar
    21     2     3 ar
    22    26    27 1
    23    26    24 2
    24    27    28 2
    25    22    24 1
    26    22    23 2
    27    24    25 1
    28     5     3 ar
    29     3     4 1
    30    28    25 1
    31    28    29 1
    32     4    32 1
    33    31    29 1
    34    31    32 1
    35    29    30 2
    36    32    33 1
    37    33    34 2
    38    33    35 1
    39    35    36 1
    40    36    37 1
    41    36    39 1
    42    37    38 2
    43    39    40 1
    44    45    40 ar
    45    45    44 ar
    46    40    41 ar
    47    44    43 ar
    48    43    42 ar
    49    41    42 ar
    50     1    46 1
    51     2    47 1
    52     4    48 1
    53     4    49 1
    54     5    50 1
    55     6    51 1
    56     9    52 1
    57     9    53 1
    58    10    54 1
    59    10    55 1
    60    11    56 1
    61    11    57 1
    62    12    58 1
    63    12    59 1
    64    15    60 1
    65    16    61 1
    66    17    62 1
    67    18    63 1
    68    20    64 1
    69    20    65 1
    70    21    66 1
    71    21    67 1
    72    25    68 1
    73    26    69 1
    74    27    70 1
    75    31    71 1
    76    32    72 1
    77    35    73 1
    78    36    74 1
    79    37    75 1
    80    39    76 1
    81    39    77 1
    82    41    78 1
    83    42    79 1
    84    43    80 1
    85    44    81 1
    86    45    82 1
@<TRIPOS>SUBSTRUCTURE
     1 5BF         1 TEMP              0 ****  ****    0 ROOT
