@<TRIPOS>MOLECULE
5BF
   82    86     1     0     0
SMALL
bcc


@<TRIPOS>ATOM
      1 C01          0.0000     0.0000     0.0000 ca         1 5BF      -0.132500
      2 C02          1.3800     0.0000     0.0000 ca         1 5BF      -0.104500
      3 C03          2.0720     0.0000     1.1960 ca         1 5BF      -0.136300
      4 C04          3.5800    -0.0080     1.1780 c3         1 5BF       0.036900
      5 C05          1.3850     0.0130     2.3960 ca         1 5BF      -0.104500
      6 C06          0.0040     0.0250     2.4020 ca         1 5BF      -0.132500
      7 C07         -0.6930     0.0230     1.2010 ca         1 5BF       0.131100
      8 O08         -2.0520     0.0370     1.2000 os         1 5BF      -0.322900
      9 C09         -2.7220    -0.9520     0.4170 c3         1 5BF       0.207400
     10 C10         -3.4180    -1.9510     1.3450 c3         1 5BF      -0.054400
     11 C11         -3.8820    -3.1630     0.5320 c3         1 5BF      -0.071400
     12 C12         -4.7380    -4.0690     1.4190 c3         1 5BF       0.210400
     13 O13         -4.6540    -5.4180     0.9580 os         1 5BF      -0.322900
     14 C14         -3.4730    -6.0600     1.1460 ca         1 5BF       0.131100
     15 C15         -2.8990    -6.1000     2.4090 ca         1 5BF      -0.144000
     16 C16         -1.6890    -6.7430     2.5950 ca         1 5BF      -0.071500
     17 C17         -2.8420    -6.6840     0.0790 ca         1 5BF      -0.144000
     18 C18         -1.6300    -7.3190     0.2700 ca         1 5BF      -0.071500
     19 C19         -1.0510    -7.3420     1.5260 ca         1 5BF      -0.123300
     20 C20          0.2790    -8.0230     1.7300 c3         1 5BF       0.050900
     21 C21          1.3840    -7.1780     1.0920 c3         1 5BF      -0.123400
     22 C22          2.7270    -7.6080     1.6230 c          1 5BF       0.654700
     23 O23          2.9640    -8.7850     1.7920 o          1 5BF      -0.548100
     24 C24          3.7460    -6.6040     1.9350 cc         1 5BF      -0.414900
     25 N25          3.5950    -5.2490     1.8080 na         1 5BF       0.463900
     26 C26          5.0270    -6.8520     2.3960 cd         1 5BF      -0.101000
     27 C27          5.6480    -5.6210     2.5900 cd         1 5BF      -0.105000
     28 C28          4.7390    -4.6400     2.2450 cc         1 5BF      -0.383900
     29 C29          4.9400    -3.1860     2.3710 c          1 5BF       0.645700
     30 O30          5.9000    -2.7520     2.9770 o          1 5BF      -0.624100
     31 N31          4.0430    -2.3300     1.8020 ns         1 5BF      -0.195900
     32 C32          4.1150    -0.9420     2.2620 c3         1 5BF      -0.063300
     33 C33          3.2870    -0.7880     3.5120 c          1 5BF       0.606100
     34 O34          2.4600    -1.6280     3.7980 o          1 5BF      -0.648100
     35 N35          3.4660     0.2830     4.3110 ns         1 5BF      -0.179900
     36 C36          2.7450     0.3750     5.5830 c3         1 5BF      -0.119300
     37 C37          1.5950     1.3380     5.4400 c          1 5BF       0.636900
     38 O38          1.4130     1.9090     4.3930 o          1 5BF      -0.540100
     39 C39          3.6970     0.8730     6.6730 c3         1 5BF       0.038900
     40 C40          4.7790    -0.1510     6.9010 ca         1 5BF      -0.109300
     41 C41          5.9530    -0.0900     6.1730 ca         1 5BF      -0.095000
     42 C42          6.9450    -1.0280     6.3820 ca         1 5BF      -0.087000
     43 C43          6.7640    -2.0290     7.3200 ca         1 5BF      -0.090000
     44 C44          5.5920    -2.0900     8.0480 ca         1 5BF      -0.087000
     45 C45          4.6010    -1.1470     7.8430 ca         1 5BF      -0.095000
     46 H1          -0.5420    -0.0170    -0.9380 ha         1 5BF       0.113000
     47 H2           1.9210     0.0160    -0.9380 ha         1 5BF       0.136500
     48 H3           3.9250    -0.3480     0.2090 hc         1 5BF       0.026700
     49 H4           3.9460     0.9960     1.3570 hc         1 5BF       0.026700
     50 H5           1.9300     0.0790     3.3300 ha         1 5BF       0.136500
     51 H6          -0.5340     0.0900     3.3400 ha         1 5BF       0.113000
     52 H7          -3.4590    -0.4720    -0.2160 h1         1 5BF       0.009200
     53 H8          -2.0010    -1.4740    -0.2000 h1         1 5BF       0.009200
     54 H9          -4.2760    -1.4780     1.8080 hc         1 5BF       0.025200
     55 H10         -2.7260    -2.2750     2.1130 hc         1 5BF       0.025200
     56 H11         -4.4680    -2.8280    -0.3150 hc         1 5BF       0.025700
     57 H12         -3.0180    -3.7140     0.1790 hc         1 5BF       0.025700
     58 H13         -5.7700    -3.7390     1.3800 h1         1 5BF       0.015700
     59 H14         -4.3810    -4.0140     2.4400 h1         1 5BF       0.015700
     60 H15         -3.4330    -5.6940     3.2590 ha         1 5BF       0.116000
     61 H16         -1.2470    -6.7870     3.5830 ha         1 5BF       0.107500
     62 H17         -3.3000    -6.6750    -0.9020 ha         1 5BF       0.116000
     63 H18         -1.1470    -7.8230    -0.5580 ha         1 5BF       0.107500
     64 H19          0.4720    -8.1300     2.7900 hc         1 5BF       0.030200
     65 H20          0.2590    -9.0020     1.2650 hc         1 5BF       0.030200
     66 H21          1.3630    -7.3100     0.0170 hc         1 5BF       0.030200
     67 H22          1.2210    -6.1340     1.3300 hc         1 5BF       0.030200
     68 H23          2.8470    -4.7940     1.3230 hn         1 5BF       0.115700
     69 H24          5.5020    -7.8230     2.4660 ha         1 5BF       0.139000
     70 H25          6.6950    -5.4660     2.8240 ha         1 5BF       0.139000
     71 H26          3.6480    -2.5410     0.9070 hn         1 5BF       0.181500
     72 H27          5.1450    -0.6880     2.4790 h1         1 5BF       0.066700
     73 H28          4.0640     1.0300     4.0200 hn         1 5BF       0.187500
     74 H29          2.3650    -0.6030     5.8540 h1         1 5BF       0.092700
     75 H30          0.9310     1.5160     6.2770 h4         1 5BF      -0.030800
     76 H31          4.1440     1.8090     6.3610 hc         1 5BF       0.025700
     77 H32          3.1440     1.0260     7.5920 hc         1 5BF       0.025700
     78 H33          6.0940     0.6930     5.4380 ha         1 5BF       0.101000
     79 H34          7.8650    -0.9810     5.8110 ha         1 5BF       0.105500
     80 H35          7.5420    -2.7650     7.4820 ha         1 5BF       0.105000
     81 H36          5.4510    -2.8720     8.7840 ha         1 5BF       0.105500
     82 H37          3.6820    -1.1950     8.4140 ha         1 5BF       0.101000
@<TRIPOS>BOND
     1     1     2 ar  
     2     1     7 ar  
     3     1    46 1   
     4     2     3 ar  
     5     2    47 1   
     6     3     4 1   
     7     3     5 ar  
     8     4    32 1   
     9     4    48 1   
    10     4    49 1   
    11     5     6 ar  
    12     5    50 1   
    13     6     7 ar  
    14     6    51 1   
    15     7     8 1   
    16     8     9 1   
    17     9    10 1   
    18     9    52 1   
    19     9    53 1   
    20    10    11 1   
    21    10    54 1   
    22    10    55 1   
    23    11    12 1   
    24    11    56 1   
    25    11    57 1   
    26    12    13 1   
    27    12    58 1   
    28    12    59 1   
    29    13    14 1   
    30    14    15 ar  
    31    14    17 ar  
    32    15    16 ar  
    33    15    60 1   
    34    16    19 ar  
    35    16    61 1   
    36    17    18 ar  
    37    17    62 1   
    38    18    19 ar  
    39    18    63 1   
    40    19    20 1   
    41    20    21 1   
    42    20    64 1   
    43    20    65 1   
    44    21    22 1   
    45    21    66 1   
    46    21    67 1   
    47    22    23 2   
    48    22    24 1   
    49    24    25 1   
    50    24    26 2   
    51    25    28 1   
    52    25    68 1   
    53    26    27 1   
    54    26    69 1   
    55    27    28 2   
    56    27    70 1   
    57    28    29 1   
    58    29    30 2   
    59    29    31 1   
    60    31    32 1   
    61    31    71 1   
    62    32    33 1   
    63    32    72 1   
    64    33    34 2   
    65    33    35 1   
    66    35    36 1   
    67    35    73 1   
    68    36    37 1   
    69    36    39 1   
    70    36    74 1   
    71    37    38 2   
    72    37    75 1   
    73    39    40 1   
    74    39    76 1   
    75    39    77 1   
    76    40    41 ar  
    77    40    45 ar  
    78    41    42 ar  
    79    41    78 1   
    80    42    43 ar  
    81    42    79 1   
    82    43    44 ar  
    83    43    80 1   
    84    44    45 ar  
    85    44    81 1   
    86    45    82 1   
@<TRIPOS>SUBSTRUCTURE
     1 5BF         1 TEMP              0 ****  ****    0 ROOT
