@<TRIPOS>MOLECULE
5BH
   82    85     1     0     0
SMALL
bcc


@<TRIPOS>ATOM
      1 CAU          0.0000     0.0000     0.0000 c3         1 5BH      -0.039400
      2 CAO          1.5430     0.0000     0.0000 c3         1 5BH      -0.016400
      3 CAP          1.9220     0.0000     1.5020 c3         1 5BH      -0.016400
      4 CAV          0.8510    -0.9280     2.1250 c3         1 5BH      -0.039400
      5 CBL         -0.4400    -0.5910     1.3510 c3         1 5BH      -0.055600
      6 CBA         -1.2520    -1.8410     1.1280 c          1 5BH       0.326100
      7 OAE         -1.1550    -2.4490     0.0830 o          1 5BH      -0.385100
      8 NAD         -2.0830    -2.2850     2.0910 nz         1 5BH       0.187600
      9 NAW         -1.2290     0.3940     2.0960 ns         1 5BH      -0.237900
     10 C           -2.4450     0.7630     1.6460 c          1 5BH       0.579100
     11 O           -2.8520     0.3420     0.5840 o          1 5BH      -0.604100
     12 CA          -3.2980     1.6980     2.4630 c3         1 5BH      -0.027300
     13 CB          -4.6710     1.0620     2.7040 c3         1 5BH      -0.033400
     14 CAM         -5.5790     2.0710     3.4120 c3         1 5BH      -0.021400
     15 CAN         -5.7660     3.3030     2.5240 c3         1 5BH      -0.041400
     16 CAT         -4.4060     3.9640     2.2800 c3         1 5BH       0.033000
     17 N           -3.4840     2.9600     1.7340 n          1 5BH      -0.140800
     18 CBC         -2.8190     3.1920     0.5840 c          1 5BH       0.614100
     19 OAG         -2.1260     2.3240     0.0970 o          1 5BH      -0.653100
     20 CBJ         -2.9380     4.5310    -0.0980 c3         1 5BH      -0.062400
     21 CBH         -1.6670     4.8080    -0.9030 c3         1 5BH      -0.035700
     22 CAQ         -1.7690     6.1860    -1.5610 c3         1 5BH      -0.033400
     23 CAK         -0.4990     6.4620    -2.3670 c3         1 5BH      -0.019900
     24 CAJ          0.7130     6.4320    -1.4330 c3         1 5BH      -0.026400
     25 CAL          0.8160     5.0550    -0.7750 c3         1 5BH      -0.019900
     26 CAR         -0.4540     4.7780     0.0310 c3         1 5BH      -0.033400
     27 CBD         -4.1260     4.5200    -1.0240 ca         1 5BH      -0.025300
     28 CAI         -5.1580     5.4200    -0.8330 ca         1 5BH      -0.245000
     29 CAH         -4.1800     3.6130    -2.0650 ca         1 5BH      -0.245000
     30 CBE         -5.2720     3.5990    -2.9200 ca         1 5BH       0.170100
     31 OAX         -5.3240     2.7060    -3.9450 os         1 5BH      -0.285400
     32 CAA         -4.2190     1.8110    -4.0820 c3         1 5BH       0.239700
     33 CBG         -6.3140     4.4990    -2.7280 ca         1 5BH       0.053100
     34 OAZ         -7.3870     4.4890    -3.5640 os         1 5BH      -0.304900
     35 CAC         -8.4820     3.6460    -3.2030 c3         1 5BH       0.253700
     36 CBF         -6.2530     5.4130    -1.6830 ca         1 5BH       0.170100
     37 OAY         -7.2710     6.2950    -1.4900 os         1 5BH      -0.285400
     38 CAB         -7.1410     7.2060    -0.3960 c3         1 5BH       0.239700
     39 H1          -0.3700     1.0140    -0.0980 hc         1 5BH       0.049450
     40 H2          -0.3700    -0.6160    -0.8110 hc         1 5BH       0.049450
     41 H3           1.9200     0.8920    -0.4850 hc         1 5BH       0.034700
     42 H4           1.9200    -0.8920    -0.4850 hc         1 5BH       0.034700
     43 H5           1.8490     0.9990     1.9140 hc         1 5BH       0.034700
     44 H6           2.9140    -0.4110     1.6450 hc         1 5BH       0.034700
     45 H7           0.7280    -0.7080     3.1790 hc         1 5BH       0.049450
     46 H8           1.1200    -1.9670     1.9770 hc         1 5BH       0.049450
     47 H9          -1.8840    -3.2460     2.2870 hn         1 5BH       0.246133
     48 H10         -1.9520    -1.7420     2.9220 hn         1 5BH       0.246133
     49 H11         -0.8760     0.7730     2.9530 hn         1 5BH       0.203500
     50 H12         -2.8200     1.8970     3.4140 h1         1 5BH       0.028700
     51 H13         -5.1120     0.7860     1.7540 hc         1 5BH       0.020700
     52 H14         -4.5570     0.1820     3.3250 hc         1 5BH       0.020700
     53 H15         -6.5430     1.6150     3.6020 hc         1 5BH       0.025200
     54 H16         -5.1230     2.3690     4.3490 hc         1 5BH       0.025200
     55 H17         -6.1940     3.0020     1.5750 hc         1 5BH       0.035700
     56 H18         -6.4250     4.0060     3.0170 hc         1 5BH       0.035700
     57 H19         -4.5190     4.7760     1.5720 h1         1 5BH       0.041200
     58 H20         -4.0150     4.3440     3.2170 h1         1 5BH       0.041200
     59 H21         -3.0690     5.3060     0.6480 hc         1 5BH       0.047700
     60 H22         -1.5480     4.0520    -1.6700 hc         1 5BH       0.054700
     61 H23         -2.6260     6.2050    -2.2230 hc         1 5BH       0.017700
     62 H24         -1.8810     6.9430    -0.7950 hc         1 5BH       0.017700
     63 H25         -0.5720     7.4390    -2.8310 hc         1 5BH       0.015950
     64 H26         -0.3840     5.7020    -3.1310 hc         1 5BH       0.015950
     65 H27          0.5960     7.1890    -0.6680 hc         1 5BH       0.017200
     66 H28          1.6130     6.6250    -2.0050 hc         1 5BH       0.017200
     67 H29          0.9290     4.2980    -1.5400 hc         1 5BH       0.015950
     68 H30          1.6730     5.0370    -0.1120 hc         1 5BH       0.015950
     69 H31         -0.5690     5.5380     0.7940 hc         1 5BH       0.017700
     70 H32         -0.3800     3.8020     0.4940 hc         1 5BH       0.017700
     71 H33         -5.1100     6.1320    -0.0180 ha         1 5BH       0.136500
     72 H34         -3.3710     2.9080    -2.2110 ha         1 5BH       0.136500
     73 H35         -3.3120     2.3800    -4.2450 h1         1 5BH      -0.000300
     74 H36         -4.1180     1.2220    -3.1780 h1         1 5BH      -0.000300
     75 H37         -4.3900     1.1530    -4.9250 h1         1 5BH      -0.000300
     76 H38         -8.6620     2.9270    -3.9940 h1         1 5BH      -0.008967
     77 H39         -8.2460     3.1210    -2.2850 h1         1 5BH      -0.008967
     78 H40         -9.3700     4.2490    -3.0560 h1         1 5BH      -0.008967
     79 H41         -7.9950     7.8720    -0.3780 h1         1 5BH      -0.000300
     80 H42         -6.2330     7.7850    -0.5150 h1         1 5BH      -0.000300
     81 H43         -7.0960     6.6500     0.5330 h1         1 5BH      -0.000300
     82 HAD3        -3.0310    -2.1940     1.7820 hn         1 5BH       0.246133
@<TRIPOS>BOND
     1     1     2 1   
     2     1     5 1   
     3     1    39 1   
     4     1    40 1   
     5     2     3 1   
     6     2    41 1   
     7     2    42 1   
     8     3     4 1   
     9     3    43 1   
    10     3    44 1   
    11     4     5 1   
    12     4    45 1   
    13     4    46 1   
    14     5     6 1   
    15     5     9 1   
    16     6     7 2   
    17     6     8 1   
    18     8    47 1   
    19     8    48 1   
    20     8    82 1   
    21     9    10 1   
    22     9    49 1   
    23    10    11 2   
    24    10    12 1   
    25    12    13 1   
    26    12    17 1   
    27    12    50 1   
    28    13    14 1   
    29    13    51 1   
    30    13    52 1   
    31    14    15 1   
    32    14    53 1   
    33    14    54 1   
    34    15    16 1   
    35    15    55 1   
    36    15    56 1   
    37    16    17 1   
    38    16    57 1   
    39    16    58 1   
    40    17    18 1   
    41    18    19 2   
    42    18    20 1   
    43    20    21 1   
    44    20    27 1   
    45    20    59 1   
    46    21    22 1   
    47    21    26 1   
    48    21    60 1   
    49    22    23 1   
    50    22    61 1   
    51    22    62 1   
    52    23    24 1   
    53    23    63 1   
    54    23    64 1   
    55    24    25 1   
    56    24    65 1   
    57    24    66 1   
    58    25    26 1   
    59    25    67 1   
    60    25    68 1   
    61    26    69 1   
    62    26    70 1   
    63    27    28 ar  
    64    27    29 ar  
    65    28    36 ar  
    66    28    71 1   
    67    29    30 ar  
    68    29    72 1   
    69    30    31 1   
    70    30    33 ar  
    71    31    32 1   
    72    32    73 1   
    73    32    74 1   
    74    32    75 1   
    75    33    34 1   
    76    33    36 ar  
    77    34    35 1   
    78    35    76 1   
    79    35    77 1   
    80    35    78 1   
    81    36    37 1   
    82    37    38 1   
    83    38    79 1   
    84    38    80 1   
    85    38    81 1   
@<TRIPOS>SUBSTRUCTURE
     1 5BH         1 TEMP              0 ****  ****    0 ROOT
