@<TRIPOS>MOLECULE
5BJ
   34    37     1     0     0
SMALL
bcc


@<TRIPOS>ATOM
      1 C1         -0.0210    0.0050   -0.0380 ca        1 5BJ     -0.069800
      2 C2          1.3790   -0.0100   -0.0570 cp        1 5BJ     -0.033000
      3 C3         -0.7080   -0.0540    1.2480 ca        1 5BJ     -0.069200
      4 C11         3.0130   -1.0370   -1.5710 ca        1 5BJ     -0.140000
      5 C12         1.3910   -0.1350    2.3850 ca        1 5BJ     -0.152000
      6 C14         2.8930    1.1000   -3.3800 ca        1 5BJ     -0.035000
      7 C15         1.2080    2.2170   -2.0060 ca        1 5BJ     -0.089000
      8 C16         3.8110   -1.0470   -2.7360 ca        1 5BJ     -0.127000
      9 C19         3.7580   -0.0010   -3.6220 ca        1 5BJ     -0.137000
     10 C20         2.8310    2.1950   -4.2850 ca        1 5BJ     -0.137000
     11 C21         1.1670    3.2610   -2.8970 ca        1 5BJ     -0.143000
     12 C22         1.9890    3.2520   -4.0480 ca        1 5BJ     -0.126000
     13 C4         -1.0540    0.0620   -1.0410 cc        1 5BJ     -0.223200
     14 C5          2.1540    0.0140   -1.3020 cp        1 5BJ      0.019000
     15 C6          2.0650   -0.0870    1.1580 ca        1 5BJ     -0.157000
     16 N7         -2.0750   -0.0290    0.9980 na        1 5BJ     -0.169400
     17 C8          0.0050   -0.1210    2.4510 ca        1 5BJ     -0.141000
     18 C9         -2.2890    0.0400   -0.3840 cd        1 5BJ     -0.066300
     19 C10         2.0750    1.1090   -2.2180 ca        1 5BJ     -0.024000
     20 O17        -4.6560    0.0390   -0.1270 o         1 5BJ     -0.812800
     21 O18        -3.8200    0.1690   -2.2040 o         1 5BJ     -0.812800
     22 H1          3.0750   -1.8840   -0.8720 ha        1 5BJ      0.134000
     23 H2          1.9760   -0.1870    3.3140 ha        1 5BJ      0.109000
     24 H3          0.5490    2.2040   -1.1200 ha        1 5BJ      0.165000
     25 H4          4.4720   -1.9060   -2.9200 ha        1 5BJ      0.118000
     26 H5          4.3760    0.0040   -4.5310 ha        1 5BJ      0.119000
     27 H6          3.4690    2.1710   -5.1810 ha        1 5BJ      0.118000
     28 H7          0.4850    4.1080   -2.7320 ha        1 5BJ      0.131000
     29 H8          1.9370    4.0970   -4.7500 ha        1 5BJ      0.119000
     30 H9         -0.9130    0.1120   -2.1160 ha        1 5BJ      0.166000
     31 H10         3.1650   -0.1050    1.1520 ha        1 5BJ      0.114000
     32 H11        -2.8040   -0.0630    1.6620 hn        1 5BJ      0.309700
     33 H12        -0.5170   -0.1630    3.4160 ha        1 5BJ      0.118000
     34 C13        -3.7030    0.0860   -0.9550 c         1 5BJ      0.926800
@<TRIPOS>BOND
     1    1    2 ar  
     2    1    3 ar  
     3    1   13 1   
     4    2   14 1   
     5    2   15 ar  
     6    3   16 1   
     7    3   17 ar  
     8    4    8 ar  
     9    4   14 ar  
    10    4   22 1   
    11    5   15 ar  
    12    5   17 ar  
    13    5   23 1   
    14    6    9 ar  
    15    6   10 ar  
    16    6   19 ar  
    17    7   11 ar  
    18    7   19 ar  
    19    7   24 1   
    20    8    9 ar  
    21    8   25 1   
    22    9   26 1   
    23   10   12 ar  
    24   10   27 1   
    25   11   12 ar  
    26   11   28 1   
    27   12   29 1   
    28   13   18 2   
    29   13   30 1   
    30   14   19 ar  
    31   15   31 1   
    32   16   18 1   
    33   16   32 1   
    34   17   33 1   
    35   18   34 1   
    36   20   34 1   
    37   21   34 1   
@<TRIPOS>SUBSTRUCTURE
     1 5BJ         1 TEMP              0 ****  ****    0 ROOT
