@<TRIPOS>MOLECULE
molecule
   34    37     1     0     0
SMALL
bcc


@<TRIPOS>ATOM
      1 C1           0.0000     0.0000     0.0000 ca         1 5BJ      -0.082800
      2 C2           1.4120     0.0000     0.0000 cp         1 5BJ      -0.027000
      3 C3          -0.6950     0.0020     1.2240 ca         1 5BJ      -0.072200
      4 C11          2.9470    -1.0850    -1.6260 ca         1 5BJ      -0.134000
      5 C12          1.3960     0.0020     2.4060 ca         1 5BJ      -0.149000
      6 C14          2.7880     1.0760    -3.3780 ca         1 5BJ      -0.031000
      7 C15          1.2880     2.2240    -1.8440 ca         1 5BJ      -0.083000
      8 C16          3.6470    -1.0950    -2.8270 ca         1 5BJ      -0.125000
      9 C19          3.5770    -0.0450    -3.6920 ca         1 5BJ      -0.136000
     10 C20          2.7050     2.1740    -4.2510 ca         1 5BJ      -0.134000
     11 C21          1.2200     3.2660    -2.7190 ca         1 5BJ      -0.140000
     12 C22          1.9410     3.2480    -3.9110 ca         1 5BJ      -0.123000
     13 C4          -0.9680    -0.0060    -1.0280 cc         1 5BJ      -0.216200
     14 C5           2.1580    -0.0010    -1.2760 cp         1 5BJ       0.013000
     15 C6           2.0950     0.0000     1.2090 ca         1 5BJ      -0.154000
     16 N7          -2.0390     0.0010     0.9330 na         1 5BJ      -0.152400
     17 C8           0.0180     0.0020     2.4200 ca         1 5BJ      -0.134000
     18 C9          -2.1960    -0.0080    -0.4400 cd         1 5BJ      -0.044300
     19 C10          2.0740     1.1070    -2.1560 ca         1 5BJ      -0.025000
     20 O17         -4.6360    -0.0150    -0.4550 o          1 5BJ      -0.823300
     21 O18         -3.5030    -0.0160    -2.3660 o          1 5BJ      -0.823300
     22 H1           3.0210    -1.9330    -0.9560 ha         1 5BJ       0.131000
     23 H2           1.9400     0.0020     3.3430 ha         1 5BJ       0.111000
     24 H3           0.7220     2.2510    -0.9210 ha         1 5BJ       0.159000
     25 H4           4.2570    -1.9530    -3.0790 ha         1 5BJ       0.115000
     26 H5           4.1300    -0.0740    -4.6230 ha         1 5BJ       0.119000
     27 H6           3.2610     2.1730    -5.1810 ha         1 5BJ       0.119000
     28 H7           0.6190     4.1320    -2.4720 ha         1 5BJ       0.126000
     29 H8           1.8700     4.0890    -4.5900 ha         1 5BJ       0.116000
     30 H9          -0.7700    -0.1020    -2.0880 ha         1 5BJ       0.167000
     31 H10          3.1780    -0.0000     1.2170 ha         1 5BJ       0.116000
     32 H11         -2.7810     0.0060     1.6050 hn         1 5BJ       0.310700
     33 H12         -0.5120     0.0040     3.3640 ha         1 5BJ       0.112000
     34 C13         -3.4810    -0.0130    -1.1510 c          1 5BJ       0.893800
@<TRIPOS>BOND
     1    21    34 1   
     2    34    20 1   
     3    34    18 1   
     4    18    13 2   
     5    18    16 1   
     6    13     1 1   
     7     8     9 ar  
     8     8     4 ar  
     9     9     6 ar  
    10    16     3 1   
    11     4    14 ar  
    12     1     3 ar  
    13     1     2 ar  
    14     6    10 ar  
    15     6    19 ar  
    16    14    19 ar  
    17    14     2 1   
    18    10    12 ar  
    19     3    17 ar  
    20    19     7 ar  
    21     2    15 ar  
    22    12    11 ar  
    23     7    11 ar  
    24    17     5 ar  
    25    15     5 ar  
    26     4    22 1   
    27     5    23 1   
    28     7    24 1   
    29     8    25 1   
    30     9    26 1   
    31    10    27 1   
    32    11    28 1   
    33    12    29 1   
    34    13    30 1   
    35    15    31 1   
    36    16    32 1   
    37    17    33 1   
@<TRIPOS>SUBSTRUCTURE
     1 5BJ         1 TEMP              0 ****  ****    0 ROOT
