@<TRIPOS>MOLECULE
molecule
   32    35     1     0     0
SMALL
bcc


@<TRIPOS>ATOM
      1 C1           0.0000     0.0000     0.0000 ca         1 5BK      -0.148000
      2 C2           1.3780     0.0000     0.0000 ca         1 5BK      -0.137000
      3 C3           1.3740     0.0020     2.4200 ca         1 5BK      -0.078800
      4 C11         -0.7090     0.0060     1.1910 ca         1 5BK      -0.157000
      5 C12         -0.0390     0.0060     2.4060 cp         1 5BK      -0.018000
      6 C13          0.0030     2.3820     4.5180 cc         1 5BK      -0.162200
      7 C15         -0.3170     3.0410     5.6440 cd         1 5BK      -0.126100
      8 C16         -0.7160     1.1080     4.5500 ca         1 5BK      -0.087800
      9 C17         -0.7960     0.0080     3.6760 cp         1 5BK       0.046000
     10 C18         -1.5960    -1.0770     4.0170 ca         1 5BK      -0.158000
     11 C19         -2.3060    -1.0740     5.2060 ca         1 5BK      -0.111000
     12 C20         -2.2320    -0.0010     6.0690 ca         1 5BK      -0.164000
     13 C21         -1.4400     1.1000     5.7550 ca         1 5BK      -0.040200
     14 C4           2.0800     0.0000     1.2020 ca         1 5BK      -0.072200
     15 N5           3.4210    -0.0050     1.5060 na         1 5BK      -0.153400
     16 C6           3.5660    -0.0080     2.8800 cc         1 5BK      -0.049300
     17 C7           2.3330    -0.0040     3.4560 cd         1 5BK      -0.209200
     18 C8           4.8430    -0.0140     3.6020 c          1 5BK       0.893800
     19 O9           4.8550    -0.0160     4.8190 o          1 5BK      -0.826300
     20 O10          6.0060    -0.0180     2.9180 o          1 5BK      -0.826300
     21 N14         -1.1800     2.2910     6.3940 na         1 5BK      -0.192400
     22 H1          -0.5350    -0.0010    -0.9420 ha         1 5BK       0.109000
     23 H2           1.9180    -0.0050    -0.9400 ha         1 5BK       0.110000
     24 H3          -1.7920     0.0060     1.1730 ha         1 5BK       0.114000
     25 H6          -1.6640    -1.9280     3.3500 ha         1 5BK       0.132000
     26 H7          -2.9260    -1.9250     5.4620 ha         1 5BK       0.117000
     27 H8          -2.7940    -0.0140     6.9960 ha         1 5BK       0.110000
     28 H9           4.1700    -0.0070     0.8410 hn         1 5BK       0.308700
     29 H10          2.1250    -0.0040     4.5190 ha         1 5BK       0.167000
     30 H12         -1.5630     2.5660     7.2770 hn         1 5BK       0.283700
     31 H4           0.6660     2.7280     3.7340 ha         1 5BK       0.170000
     32 H5           0.0550     4.0210     5.9170 h4         1 5BK       0.157000
@<TRIPOS>BOND
     1    19    18 1   
     2    18    20 1   
     3    18    16 1   
     4    16    17 2   
     5    16    15 1   
     6    17     3 1   
     7    15    14 1   
     8     7    21 1   
     9     7     6 2   
    10    21    13 1   
    11     6     8 1   
    12     3    14 ar  
    13     3     5 ar  
    14    13     8 ar  
    15    13    12 ar  
    16    14     2 ar  
    17     8     9 ar  
    18    12    11 ar  
    19     9     5 1   
    20     9    10 ar  
    21     5     4 ar  
    22    11    10 ar  
    23     2     1 ar  
    24     4     1 ar  
    25     1    22 1   
    26     2    23 1   
    27     4    24 1   
    28     6    31 1   
    29     7    32 1   
    30    10    25 1   
    31    11    26 1   
    32    12    27 1   
    33    15    28 1   
    34    17    29 1   
    35    21    30 1   
@<TRIPOS>SUBSTRUCTURE
     1 5BK         1 TEMP              0 ****  ****    0 ROOT
