@<TRIPOS>MOLECULE
5BK
   32    35     1     0     0
SMALL
bcc


@<TRIPOS>ATOM
      1 C1          0.0290   -0.3120    0.0030 ca        1 5BK     -0.152000
      2 C2          1.4130   -0.2230   -0.0300 ca        1 5BK     -0.143000
      3 C3          1.3630    0.0460    2.4470 ca        1 5BK     -0.064800
      4 C11        -0.6810   -0.2300    1.2070 ca        1 5BK     -0.157000
      5 C12        -0.0360   -0.0450    2.4340 cp        1 5BK     -0.023000
      6 C13         0.2480    2.1620    4.7340 cc        1 5BK     -0.140200
      7 C15        -0.0620    2.8170    5.9130 cd        1 5BK     -0.143100
      8 C16        -0.6640    1.0390    4.6100 ca        1 5BK     -0.078800
      9 C17        -0.8390    0.0320    3.6540 cp        1 5BK      0.047000
     10 C18        -1.8470   -0.9140    3.8820 ca        1 5BK     -0.162000
     11 C19        -2.6610   -0.8680    5.0200 ca        1 5BK     -0.119000
     12 C20        -2.5180    0.1250    5.9810 ca        1 5BK     -0.163000
     13 C21        -1.5180    1.0820    5.7760 ca        1 5BK     -0.057200
     14 C4          2.0870   -0.0460    1.1840 ca        1 5BK     -0.069200
     15 N5          3.4430    0.0740    1.4650 na        1 5BK     -0.170400
     16 C6          3.6150    0.2290    2.8450 cc        1 5BK     -0.069300
     17 C7          2.3630    0.2140    3.4690 cd        1 5BK     -0.223200
     18 C8          5.0050    0.3930    3.4500 c         1 5BK      0.926800
     19 O9          5.0770    0.5850    4.6900 o         1 5BK     -0.815300
     20 O10         5.9870    0.3290    2.6570 o         1 5BK     -0.815300
     21 N14        -1.1860    2.2240    6.5300 na        1 5BK     -0.196400
     22 H1         -0.5270   -0.4510   -0.9350 ha        1 5BK      0.108000
     23 H2          1.9630   -0.2890   -0.9780 ha        1 5BK      0.117000
     24 H3         -1.7790   -0.3030    1.1850 ha        1 5BK      0.113000
     25 H6         -1.9950   -1.7200    3.1490 ha        1 5BK      0.130000
     26 H7         -3.4310   -1.6410    5.1560 ha        1 5BK      0.115000
     27 H8         -3.1630    0.1550    6.8670 ha        1 5BK      0.119000
     28 H9          4.1910    0.0390    0.8220 hn        1 5BK      0.308700
     29 H10         2.1900    0.3090    4.5370 ha        1 5BK      0.166000
     30 H12        -1.3250    2.2570    7.5070 hn        1 5BK      0.270700
     31 H4          1.0410    2.4010    4.0260 ha        1 5BK      0.184000
     32 H5          0.4050    3.6940    6.3620 h4        1 5BK      0.159000
@<TRIPOS>BOND
     1    1    2 ar  
     2    1    4 ar  
     3    1   22 1   
     4    2   14 ar  
     5    2   23 1   
     6    3    5 ar  
     7    3   14 ar  
     8    3   17 1   
     9    4    5 ar  
    10    4   24 1   
    11    5    9 1   
    12    6    7 2   
    13    6    8 1   
    14    6   31 1   
    15    7   21 1   
    16    7   32 1   
    17    8    9 ar  
    18    8   13 ar  
    19    9   10 ar  
    20   10   11 ar  
    21   10   25 1   
    22   11   12 ar  
    23   11   26 1   
    24   12   13 ar  
    25   12   27 1   
    26   13   21 1   
    27   14   15 1   
    28   15   16 1   
    29   15   28 1   
    30   16   17 2   
    31   16   18 1   
    32   17   29 1   
    33   18   19 1   
    34   18   20 1   
    35   21   30 1   
@<TRIPOS>SUBSTRUCTURE
     1 5BK         1 TEMP              0 ****  ****    0 ROOT
