@<TRIPOS>MOLECULE
5BL
   43    47     1     0     0
SMALL
bcc


@<TRIPOS>ATOM
      1 C1          0.3500   -0.7170   -0.0940 cc        1 5BL     -0.201000
      2 C2          1.7190   -0.3070   -0.0260 cc        1 5BL     -0.192000
      3 C3          2.1340   -0.4350    1.3150 cd        1 5BL     -0.047300
      4 C11         7.8230    0.9960    0.4660 ca        1 5BL     -0.081000
      5 C12         8.9130    0.9360   -0.4310 ca        1 5BL     -0.117000
      6 C13         9.1770   -0.2140   -1.1310 ca        1 5BL     -0.134000
      7 C14         7.2780   -1.3200   -0.0360 ca        1 5BL     -0.020000
      8 C15         8.3670   -1.3660   -0.9470 ca        1 5BL     -0.040000
      9 C16         8.6390   -2.5720   -1.6510 ca        1 5BL     -0.123000
     10 C17         7.8720   -3.6910   -1.4480 ca        1 5BL     -0.139000
     11 C18         6.8020   -3.6570   -0.5230 ca        1 5BL     -0.145000
     12 C19         6.5140   -2.5050    0.1650 ca        1 5BL     -0.107000
     13 C20         6.0260    0.4000    2.9340 ca        1 5BL      0.421600
     14 C21         4.8570    0.4980    3.7520 ca        1 5BL     -0.167300
     15 C22         5.0270    0.8860    5.1160 ca        1 5BL     -0.127000
     16 C23         6.2810    1.1570    5.5840 ca        1 5BL     -0.206300
     17 C24         7.4090    1.0470    4.6890 ca        1 5BL      0.405800
     18 C26         8.7890    1.4100    5.3030 c         1 5BL      0.826100
     19 N4          1.0460   -0.9130    2.0540 na        1 5BL     -0.175100
     20 C5         -0.0380   -1.0880    1.2020 cd        1 5BL     -0.178300
     21 C6          5.8500    0.0040    1.5610 cp        1 5BL     -0.085300
     22 C7          4.5840   -0.2520    1.0740 ca        1 5BL     -0.114000
     23 C8          3.4330   -0.1490    1.8960 ca        1 5BL     -0.052000
     24 C9          3.5790    0.2240    3.2190 ca        1 5BL     -0.100000
     25 C10         7.0040   -0.1000    0.6600 cp        1 5BL     -0.006000
     26 N25         7.2900    0.6760    3.4240 nb        1 5BL     -0.663000
     27 O27         9.2970    0.5530    6.0670 o         1 5BL     -0.799800
     28 O28         9.2410    2.5480    5.0300 o         1 5BL     -0.799800
     29 H1         -0.2730   -0.7380   -0.9820 ha        1 5BL      0.142000
     30 H2          2.3300    0.0480   -0.8500 ha        1 5BL      0.152000
     31 H3          7.6460    1.9280    1.0260 ha        1 5BL      0.158000
     32 H4          9.5510    1.8250   -0.5470 ha        1 5BL      0.130000
     33 H5         10.0220   -0.2690   -1.8330 ha        1 5BL      0.120000
     34 H6          9.4830   -2.5870   -2.3570 ha        1 5BL      0.121000
     35 H7          8.0830   -4.6240   -1.9890 ha        1 5BL      0.118000
     36 H8          6.2090   -4.5680   -0.3590 ha        1 5BL      0.122000
     37 H9          5.6920   -2.4830    0.8970 ha        1 5BL      0.144000
     38 H10         4.1390    0.9590    5.7590 ha        1 5BL      0.114000
     39 H11         6.4770    1.4520    6.6240 ha        1 5BL      0.150000
     40 H12         1.0630   -1.1080    3.0190 hn        1 5BL      0.291700
     41 H13        -0.9940   -1.4560    1.5710 h4        1 5BL      0.154000
     42 H14         4.4520   -0.5470    0.0210 ha        1 5BL      0.136000
     43 H15         2.7070    0.3310    3.8810 ha        1 5BL      0.114000
@<TRIPOS>BOND
     1    1    2 1   
     2    1   20 2   
     3    1   29 1   
     4    2    3 2   
     5    2   30 1   
     6    3   19 1   
     7    3   23 1   
     8    4    5 ar  
     9    4   25 ar  
    10    4   31 1   
    11    5    6 ar  
    12    5   32 1   
    13    6    8 ar  
    14    6   33 1   
    15    7    8 ar  
    16    7   12 ar  
    17    7   25 ar  
    18    8    9 ar  
    19    9   10 ar  
    20    9   34 1   
    21   10   11 ar  
    22   10   35 1   
    23   11   12 ar  
    24   11   36 1   
    25   12   37 1   
    26   13   14 ar  
    27   13   21 ar  
    28   13   26 ar  
    29   14   15 ar  
    30   14   24 ar  
    31   15   16 ar  
    32   15   38 1   
    33   16   17 ar  
    34   16   39 1   
    35   17   18 1   
    36   17   26 ar  
    37   18   27 1   
    38   18   28 1   
    39   19   20 1   
    40   19   40 1   
    41   20   41 1   
    42   21   22 ar  
    43   21   25 1   
    44   22   23 ar  
    45   22   42 1   
    46   23   24 ar  
    47   24   43 1   
@<TRIPOS>SUBSTRUCTURE
     1 5BL         1 TEMP              0 ****  ****    0 ROOT
