@<TRIPOS>MOLECULE
molecule
   43    47     1     0     0
SMALL
bcc


@<TRIPOS>ATOM
      1 C1           0.0000     0.0000     0.0000 cc         1 5BL      -0.208000
      2 C2           1.4040     0.0000     0.0000 cd         1 5BL      -0.200000
      3 C3           1.8100     0.0000     1.3020 cc         1 5BL      -0.048300
      4 C11          6.8540     1.0820    -0.5710 ca         1 5BL      -0.125000
      5 C12          7.8890     1.0930    -1.4990 ca         1 5BL      -0.130000
      6 C13          8.7470     0.0410    -1.6080 ca         1 5BL      -0.121000
      7 C14          7.5490    -1.1110     0.1750 ca         1 5BL       0.003000
      8 C15          8.5970    -1.0820    -0.7770 ca         1 5BL      -0.025000
      9 C16          9.4700    -2.1800    -0.8720 ca         1 5BL      -0.128000
     10 C17          9.2970    -3.2520    -0.0510 ca         1 5BL      -0.119000
     11 C18          8.2640    -3.2780     0.8840 ca         1 5BL      -0.131000
     12 C19          7.4010    -2.2310     1.0040 ca         1 5BL      -0.074000
     13 C20          5.8620    -0.0120     2.6930 ca         1 5BL       0.419600
     14 C21          4.7800    -0.0130     3.6130 ca         1 5BL      -0.170300
     15 C22          5.0580    -0.0180     4.9950 ca         1 5BL      -0.129000
     16 C23          6.3640    -0.0210     5.3920 ca         1 5BL      -0.210300
     17 C24          7.3850    -0.0200     4.4290 ca         1 5BL       0.431800
     18 C26          8.7970    -0.0240     4.8720 c          1 5BL       0.774100
     19 N4           0.6870    -0.0000     2.0920 na         1 5BL      -0.159100
     20 C5          -0.4110     0.0040     1.2860 cd         1 5BL      -0.174300
     21 C6           5.5700    -0.0060     1.2580 cp         1 5BL      -0.073300
     22 C7           4.2540    -0.0020     0.8420 ca         1 5BL      -0.114000
     23 C8           3.2080    -0.0040     1.7780 ca         1 5BL      -0.038000
     24 C9           3.4630    -0.0100     3.1390 ca         1 5BL      -0.110000
     25 C10          6.6700    -0.0050     0.2690 cp         1 5BL       0.009000
     26 N25          7.1140    -0.0100     3.1350 nb         1 5BL      -0.635000
     27 O27          9.0610    -0.0280     6.0570 o          1 5BL      -0.808800
     28 O28          9.7890    -0.0230     3.9610 o          1 5BL      -0.808800
     29 H1          -0.6390     0.0010    -0.8750 ha         1 5BL       0.138000
     30 H2           2.0460    -0.0010    -0.8730 ha         1 5BL       0.149000
     31 H3           6.1850     1.9310    -0.5040 ha         1 5BL       0.126000
     32 H4           8.0150     1.9530    -2.1460 ha         1 5BL       0.115000
     33 H5           9.5470     0.0710    -2.3380 ha         1 5BL       0.118000
     34 H6          10.2770    -2.1720    -1.5950 ha         1 5BL       0.118000
     35 H7           9.9710    -4.0970    -0.1260 ha         1 5BL       0.114000
     36 H8           8.1480    -4.1420     1.5270 ha         1 5BL       0.122000
     37 H9           6.6020    -2.2650     1.7350 ha         1 5BL       0.141000
     38 H10          4.2570    -0.0190     5.7230 ha         1 5BL       0.117000
     39 H11          6.6110     0.0630     6.4430 ha         1 5BL       0.158000
     40 H12          0.6780     0.0010     3.0920 hn         1 5BL       0.292700
     41 H13         -1.4420     0.0050     1.6210 h4         1 5BL       0.154000
     42 H14          4.0260     0.0010    -0.2180 ha         1 5BL       0.134000
     43 H15          2.6390    -0.0110     3.8410 ha         1 5BL       0.107000
@<TRIPOS>BOND
     1    27    18 1   
     2    28    18 1   
     3    18    17 1   
     4    17    16 ar  
     5    17    26 ar  
     6    16    15 ar  
     7    26    13 ar  
     8    15    14 ar  
     9    13    14 ar  
    10    13    21 ar  
    11     5     6 ar  
    12     5     4 ar  
    13    14    24 ar  
    14     6     8 ar  
    15     4    25 ar  
    16    25     7 ar  
    17    25    21 1   
    18     8     7 ar  
    19     8     9 ar  
    20     7    12 ar  
    21    21    22 ar  
    22     9    10 ar  
    23    12    11 ar  
    24    10    11 ar  
    25    24    23 ar  
    26    22    23 ar  
    27    23     3 1   
    28     3    19 1   
    29     3     2 2   
    30    19    20 1   
    31     2     1 1   
    32    20     1 2   
    33     1    29 1   
    34     2    30 1   
    35     4    31 1   
    36     5    32 1   
    37     6    33 1   
    38     9    34 1   
    39    10    35 1   
    40    11    36 1   
    41    12    37 1   
    42    15    38 1   
    43    16    39 1   
    44    19    40 1   
    45    20    41 1   
    46    22    42 1   
    47    24    43 1   
@<TRIPOS>SUBSTRUCTURE
     1 5BL         1 TEMP              0 ****  ****    0 ROOT
