@<TRIPOS>MOLECULE
molecule
   44    45     1     0     0
SMALL
bcc


@<TRIPOS>ATOM
      1 C01          0.0000     0.0000     0.0000 ce         1 5BM       0.068800
      2 C02         -0.7160     0.0870    -1.2370 cg         1 5BM       0.284000
      3 N03         -1.2730     0.1720    -2.2230 n1         1 5BM      -0.241800
      4 C04          1.3840     0.0000     0.0000 c2         1 5BM      -0.053900
      5 N05          2.0720     0.0000     1.1920 nz         1 5BM      -0.756400
      6 S06          2.2650     0.0020    -1.5260 ss         1 5BM       0.027000
      7 C07          3.9160     0.1350    -0.9260 ca         1 5BM      -0.214600
      8 C08          4.5550    -0.9790    -0.3820 ca         1 5BM       0.233600
      9 C09          5.8550    -0.8660     0.0880 ca         1 5BM      -0.184000
     10 C10          6.5130     0.3470     0.0170 ca         1 5BM      -0.014500
     11 C11          5.8800     1.4520    -0.5230 ca         1 5BM      -0.155000
     12 C12          4.5870     1.3480    -0.9990 ca         1 5BM      -0.071500
     13 N13          3.8870    -2.2070    -0.3100 nv         1 5BM      -0.908700
     14 C21         -0.7420    -0.0850     1.2840 ce         1 5BM       0.068800
     15 C22         -0.1120    -1.0280     2.7020 cg         1 5BM       0.284000
     16 N23          0.3340    -1.2920     3.3450 n1         1 5BM      -0.241800
     17 C24         -0.6640     0.9500     2.1980 c2         1 5BM      -0.053900
     18 N25          0.0030     2.1090     1.8700 nz         1 5BM      -0.756400
     19 S26         -1.4190     0.7860     3.7820 ss         1 5BM       0.027000
     20 C27         -2.6880     2.0000     3.6420 ca         1 5BM      -0.214600
     21 C28         -3.4800     2.3140     4.7470 ca         1 5BM       0.233600
     22 C29         -4.4770     3.2720     4.6310 ca         1 5BM      -0.184000
     23 C30         -4.6840     3.9110     3.4230 ca         1 5BM      -0.014500
     24 C31         -3.9000     3.5990     2.3280 ca         1 5BM      -0.155000
     25 C32         -2.8990     2.6520     2.4360 ca         1 5BM      -0.071500
     26 N33         -3.2700     1.6660     5.9690 nv         1 5BM      -0.908700
     27 HN05         2.9940     0.3620     1.0450 hn         1 5BM       0.479300
     28 HN0A         1.5910     0.5740     1.8560 hn         1 5BM       0.479300
     29 H09          6.3530    -1.7290     0.5140 ha         1 5BM       0.173500
     30 H10          7.5260     0.4360     0.3880 ha         1 5BM       0.175000
     31 H11          6.4030     2.3980    -0.5870 ha         1 5BM       0.167500
     32 H12          4.0870     2.2180    -1.4050 ha         1 5BM       0.124500
     33 HN13         3.0520    -2.3530    -0.8420 hn         1 5BM       0.454050
     34 HN1A         4.2650    -2.9500     0.2430 hn         1 5BM       0.454050
     35 HN25         0.0890     2.6860     2.6830 hn         1 5BM       0.479300
     36 HN2A         0.9140     1.8830     1.5240 hn         1 5BM       0.479300
     37 H29         -5.0960     3.5160     5.4870 ha         1 5BM       0.173500
     38 H30         -5.4650     4.6560     3.3310 ha         1 5BM       0.175000
     39 H31         -4.0670     4.1000     1.3820 ha         1 5BM       0.167500
     40 H32         -2.2950     2.4010     1.5730 ha         1 5BM       0.124500
     41 HN33        -3.9010     1.8170     6.7310 hn         1 5BM       0.454050
     42 HN3A        -2.4500     1.1080     6.1040 hn         1 5BM       0.454050
     43 H053         2.8230    -0.6600     1.1440 hn         1 5BM       0.479300
     44 H253         0.2280     2.1000     0.8950 hn         1 5BM       0.479300
@<TRIPOS>BOND
     1     1     2 1   
     2     1     4 2   
     3     1    14 1   
     4     2     3 3   
     5     4     5 1   
     6     4     6 1   
     7     6     7 1   
     8     7     8 ar  
     9     7    12 ar  
    10     8     9 ar  
    11     8    13 1   
    12     9    10 ar  
    13    10    11 ar  
    14    11    12 ar  
    15    14    15 1   
    16    14    17 2   
    17    15    16 3   
    18    17    18 1   
    19    17    19 1   
    20    19    20 1   
    21    20    21 ar  
    22    20    25 ar  
    23    21    22 ar  
    24    21    26 1   
    25    22    23 ar  
    26    23    24 ar  
    27    24    25 ar  
    28     5    27 1   
    29     5    28 1   
    30     9    29 1   
    31    10    30 1   
    32    11    31 1   
    33    12    32 1   
    34    13    33 1   
    35    13    34 1   
    36    18    35 1   
    37    18    36 1   
    38    22    37 1   
    39    23    38 1   
    40    24    39 1   
    41    25    40 1   
    42    26    41 1   
    43    26    42 1   
    44    43     5 1   
    45    44    18 1   
@<TRIPOS>SUBSTRUCTURE
     1 5BM         1 TEMP              0 ****  ****    0 ROOT
