@<TRIPOS>MOLECULE
5BM
   44    45     1     0     0
SMALL
bcc


@<TRIPOS>ATOM
      1 C01          0.0000     0.0000     0.0000 ce         1 5BM       0.211800
      2 C02         -0.7160     0.0870    -1.2370 cg         1 5BM       0.080000
      3 N03         -1.2740     0.1400    -2.2240 n1         1 5BM      -0.153800
      4 C04          1.3840     0.0000     0.0000 c2         1 5BM      -0.236400
      5 N05          2.0720     0.0000     1.1920 nz         1 5BM       0.089600
      6 S06          2.2650     0.0020    -1.5260 ss         1 5BM      -0.079500
      7 C07          3.9160     0.1350    -0.9260 ca         1 5BM      -0.157100
      8 C08          4.5550    -0.9790    -0.3820 ca         1 5BM       0.092100
      9 C09          5.8550    -0.8660     0.0880 ca         1 5BM      -0.152000
     10 C10          6.5130     0.3470     0.0170 ca         1 5BM       0.027000
     11 C11          5.8800     1.4520    -0.5230 ca         1 5BM      -0.120500
     12 C12          4.5870     1.3480    -0.9990 ca         1 5BM      -0.046500
     13 N13          3.8870    -2.2070    -0.3100 nv         1 5BM      -0.414700
     14 C21         -0.7420    -0.0850     1.2840 ce         1 5BM       0.211800
     15 C22         -0.9050    -1.4650     2.1290 cg         1 5BM       0.080000
     16 N23         -1.1250    -2.3410     2.4600 n1         1 5BM      -0.153800
     17 C24         -0.6640     0.9500     2.1980 c2         1 5BM      -0.236400
     18 N25          0.0030     2.1090     1.8700 nz         1 5BM       0.089600
     19 S26         -1.4190     0.7860     3.7820 ss         1 5BM      -0.079500
     20 C27         -2.6880     2.0000     3.6420 ca         1 5BM      -0.157100
     21 C28         -3.4800     2.3140     4.7470 ca         1 5BM       0.092100
     22 C29         -4.4770     3.2720     4.6310 ca         1 5BM      -0.152000
     23 C30         -4.6840     3.9110     3.4230 ca         1 5BM       0.027000
     24 C31         -3.9000     3.5990     2.3280 ca         1 5BM      -0.120500
     25 C32         -2.8990     2.6520     2.4360 ca         1 5BM      -0.046500
     26 N33         -3.2700     1.6660     5.9690 nv         1 5BM      -0.414700
     27 HN05         2.1090    -0.9320     1.5560 hn         1 5BM       0.263967
     28 HN0A         1.6050     0.5960     1.8470 hn         1 5BM       0.263967
     29 H09          6.3490    -1.7260     0.5250 ha         1 5BM       0.142500
     30 H10          7.5260     0.4370     0.3900 ha         1 5BM       0.132500
     31 H11          6.3780     2.4130    -0.5240 ha         1 5BM       0.133000
     32 H12          4.0610     2.2380    -1.3200 ha         1 5BM       0.091000
     33 HN13         2.8860    -2.2320    -0.2980 hn         1 5BM       0.284800
     34 HN1A         4.4090    -3.0570    -0.2400 hn         1 5BM       0.284800
     35 HN25        -0.0610     2.7570     2.6300 hn         1 5BM       0.263967
     36 HN2A         0.9650     1.9010     1.6900 hn         1 5BM       0.263967
     37 H29         -5.0870     3.5250     5.4900 ha         1 5BM       0.142500
     38 H30         -5.4620     4.6600     3.3320 ha         1 5BM       0.132500
     39 H31         -4.0780     4.0880     1.3780 ha         1 5BM       0.133000
     40 H32         -2.3620     2.3370     1.5500 ha         1 5BM       0.091000
     41 HN33        -3.8420     1.8890     6.7590 hn         1 5BM       0.284800
     42 HN3A        -2.5470     0.9790     6.0530 hn         1 5BM       0.284800
     43 H053         2.7860    -0.7010     1.1650 hn         1 5BM       0.263967
     44 H253        -0.0060     2.2290     0.8760 hn         1 5BM       0.263967
@<TRIPOS>BOND
     1     1     2 1   
     2     1     4 2   
     3     1    14 1   
     4     2     3 3   
     5     4     5 1   
     6     4     6 1   
     7     5    27 1   
     8     5    28 1   
     9     5    43 1   
    10     6     7 1   
    11     7     8 ar  
    12     7    12 ar  
    13     8     9 ar  
    14     8    13 1   
    15     9    10 ar  
    16     9    29 1   
    17    10    11 ar  
    18    10    30 1   
    19    11    12 ar  
    20    11    31 1   
    21    12    32 1   
    22    13    33 1   
    23    13    34 1   
    24    14    15 1   
    25    14    17 2   
    26    15    16 3   
    27    17    18 1   
    28    17    19 1   
    29    18    35 1   
    30    18    36 1   
    31    18    44 1   
    32    19    20 1   
    33    20    21 ar  
    34    20    25 ar  
    35    21    22 ar  
    36    21    26 1   
    37    22    23 ar  
    38    22    37 1   
    39    23    24 ar  
    40    23    38 1   
    41    24    25 ar  
    42    24    39 1   
    43    25    40 1   
    44    26    41 1   
    45    26    42 1   
@<TRIPOS>SUBSTRUCTURE
     1 5BM         1 TEMP              0 ****  ****    0 ROOT
