@<TRIPOS>MOLECULE
molecule
   39    42     1     0     0
SMALL
bcc


@<TRIPOS>ATOM
      1 N22          0.0000     0.0000     0.0000 nz         1 5BN      -0.807600
      2 C21          1.4690     0.0000     0.0000 c3         1 5BN       0.074800
      3 C20          1.9790     0.0000     1.4420 c3         1 5BN       0.222800
      4 N19          3.4440    -0.0000     1.4420 nu         1 5BN      -0.824600
      5 C7           4.1380     0.0010     2.6410 ca         1 5BN       0.235600
      6 C8           3.4550     0.0010     3.8480 ca         1 5BN      -0.242000
      7 C9           4.1100     0.0010     5.0870 ca         1 5BN       0.155000
      8 C14          3.3320     0.0020     6.3370 cc         1 5BN      -0.135300
      9 C15          3.6270     0.7070     7.4690 cd         1 5BN      -0.113000
     10 C16          2.6290     0.4200     8.4110 cd         1 5BN      -0.203000
     11 C17          1.7630    -0.4490     7.8430 cc         1 5BN      -0.138300
     12 N18          2.1830    -0.7120     6.5760 na         1 5BN      -0.163100
     13 C10          5.5130     0.0030     5.1290 ca         1 5BN      -0.168000
     14 C11          6.5790     0.0050     6.1220 c          1 5BN       0.322800
     15 O13          6.4290     0.0060     7.3320 o          1 5BN      -0.301000
     16 N12          7.7690     0.0030     5.4660 ns         1 5BN      -0.265300
     17 C6           7.5600     0.0020     4.0920 ca         1 5BN       0.028800
     18 C1           8.3450    -0.0020     2.9530 ca         1 5BN      -0.115000
     19 C2           7.7450    -0.0040     1.6970 ca         1 5BN      -0.127000
     20 C3           6.3740    -0.0030     1.5170 ca         1 5BN       0.101900
     21 F            5.8390    -0.0040     0.2760 f          1 5BN      -0.153900
     22 C4           5.5510    -0.0050     2.6540 ca         1 5BN      -0.082000
     23 C5           6.1840     0.0010     3.8950 ca         1 5BN      -0.046000
     24 H221        -0.3340    -0.0000    -0.9440 hn         1 5BN       0.461467
     25 H222        -0.3340     0.8170     0.4720 hn         1 5BN       0.461467
     26 H211         1.8300     0.8840    -0.5110 hx         1 5BN       0.121200
     27 H212         1.8300    -0.8840    -0.5110 hx         1 5BN       0.121200
     28 H201         1.6180     0.8850     1.9530 h1         1 5BN       0.057200
     29 H202         1.6180    -0.8840     1.9530 h1         1 5BN       0.057200
     30 H19          3.9450    -0.0000     0.5750 hn         1 5BN       0.470800
     31 H8           2.3720     0.0010     3.8320 ha         1 5BN       0.118000
     32 H15          4.4710     1.3710     7.6110 ha         1 5BN       0.171000
     33 H16          2.5660     0.8190     9.4160 ha         1 5BN       0.161000
     34 H17          0.8820    -0.8650     8.3160 h4         1 5BN       0.170000
     35 H18          1.7290    -1.3230     5.9260 hn         1 5BN       0.283700
     36 H12          8.6660     0.0020     5.9080 hn         1 5BN       0.319700
     37 H1           9.4280    -0.0030     2.9790 ha         1 5BN       0.154000
     38 H2           8.4090    -0.0060     0.8410 ha         1 5BN       0.156000
     39 H223        -0.3340    -0.8180     0.4710 hn         1 5BN       0.461467
@<TRIPOS>BOND
     1     1     2 1   
     2     1    24 1   
     3     1    25 1   
     4     2     3 1   
     5     2    26 1   
     6     2    27 1   
     7     3     4 1   
     8     3    28 1   
     9     3    29 1   
    10     4     5 1   
    11     4    30 1   
    12     5     6 ar  
    13     5    22 ar  
    14     6     7 ar  
    15     6    31 1   
    16     7     8 1   
    17     7    13 ar  
    18     8     9 2   
    19     8    12 1   
    20     9    10 1   
    21     9    32 1   
    22    10    11 2   
    23    10    33 1   
    24    11    12 1   
    25    11    34 1   
    26    12    35 1   
    27    13    14 1   
    28    13    23 ar  
    29    14    15 2   
    30    14    16 1   
    31    16    17 1   
    32    16    36 1   
    33    17    18 ar  
    34    17    23 ar  
    35    18    19 ar  
    36    18    37 1   
    37    19    20 ar  
    38    19    38 1   
    39    20    21 1   
    40    20    22 ar  
    41    22    23 ar  
    42    39     1 1   
@<TRIPOS>SUBSTRUCTURE
     1 5BN         1 TEMP              0 ****  ****    0 ROOT
