@<TRIPOS>MOLECULE
5BN
   39    42     1     0     0
SMALL
bcc


@<TRIPOS>ATOM
      1 N22          0.0000     0.0000     0.0000 nz         1 5BN       0.096400
      2 C21          1.4690     0.0000     0.0000 c3         1 5BN      -0.065200
      3 C20          1.9790     0.0000     1.4420 c3         1 5BN       0.171800
      4 N19          3.4440    -0.0000     1.4420 nu         1 5BN      -0.438600
      5 C7           4.1380     0.0010     2.6410 ca         1 5BN       0.101600
      6 C8           3.4550     0.0010     3.8480 ca         1 5BN      -0.237000
      7 C9           4.1100     0.0010     5.0870 ca         1 5BN       0.194000
      8 C14          3.3320     0.0020     6.3370 cc         1 5BN      -0.335300
      9 C15          3.6270     0.7070     7.4690 cd         1 5BN      -0.086000
     10 C16          2.6290     0.4200     8.4110 cd         1 5BN      -0.167000
     11 C17          1.7630    -0.4490     7.8430 cc         1 5BN      -0.320300
     12 N18          2.1830    -0.7120     6.5760 na         1 5BN       0.398900
     13 C10          5.5130     0.0030     5.1290 ca         1 5BN      -0.179000
     14 C11          6.5790     0.0050     6.1220 c          1 5BN       0.232800
     15 O13          6.4290     0.0060     7.3320 o          1 5BN      -0.341000
     16 N12          7.7690     0.0030     5.4660 ns         1 5BN       0.190700
     17 C6           7.5600     0.0020     4.0920 ca         1 5BN      -0.120200
     18 C1           8.3450    -0.0020     2.9530 ca         1 5BN      -0.075000
     19 C2           7.7450    -0.0040     1.6970 ca         1 5BN      -0.094000
     20 C3           6.3740    -0.0030     1.5170 ca         1 5BN       0.069900
     21 F            5.8390    -0.0040     0.2760 f          1 5BN      -0.132900
     22 C4           5.5510    -0.0050     2.6540 ca         1 5BN      -0.067000
     23 C5           6.1840     0.0010     3.8950 ca         1 5BN      -0.054000
     24 H221        -0.3340    -0.0000    -0.9440 hn         1 5BN       0.225133
     25 H222        -0.3340     0.8170     0.4720 hn         1 5BN       0.225133
     26 H211         1.8300     0.8840    -0.5110 hx         1 5BN       0.091200
     27 H212         1.8300    -0.8840    -0.5110 hx         1 5BN       0.091200
     28 H201         1.6180     0.8850     1.9530 h1         1 5BN       0.026200
     29 H202         1.6180    -0.8840     1.9530 h1         1 5BN       0.026200
     30 H19          3.9450    -0.0000     0.5750 hn         1 5BN       0.330800
     31 H8           2.3720     0.0010     3.8320 ha         1 5BN       0.098000
     32 H15          4.4710     1.3710     7.6110 ha         1 5BN       0.145000
     33 H16          2.5660     0.8190     9.4160 ha         1 5BN       0.134000
     34 H17          0.8820    -0.8650     8.3160 h4         1 5BN       0.145000
     35 H18          1.7290    -1.3230     5.9260 hn         1 5BN       0.096700
     36 H12          8.6660     0.0020     5.9080 hn         1 5BN       0.151700
     37 H1           9.4280    -0.0030     2.9790 ha         1 5BN       0.120000
     38 H2           8.4090    -0.0060     0.8410 ha         1 5BN       0.123000
     39 H223        -0.3340    -0.8180     0.4710 hn         1 5BN       0.225133
@<TRIPOS>BOND
     1     1     2 1   
     2     1    24 1   
     3     1    25 1   
     4     1    39 1   
     5     2     3 1   
     6     2    26 1   
     7     2    27 1   
     8     3     4 1   
     9     3    28 1   
    10     3    29 1   
    11     4     5 1   
    12     4    30 1   
    13     5     6 ar  
    14     5    22 ar  
    15     6     7 ar  
    16     6    31 1   
    17     7     8 1   
    18     7    13 ar  
    19     8     9 2   
    20     8    12 1   
    21     9    10 1   
    22     9    32 1   
    23    10    11 2   
    24    10    33 1   
    25    11    12 1   
    26    11    34 1   
    27    12    35 1   
    28    13    14 1   
    29    13    23 ar  
    30    14    15 2   
    31    14    16 1   
    32    16    17 1   
    33    16    36 1   
    34    17    18 ar  
    35    17    23 ar  
    36    18    19 ar  
    37    18    37 1   
    38    19    20 ar  
    39    19    38 1   
    40    20    21 1   
    41    20    22 ar  
    42    22    23 ar  
@<TRIPOS>SUBSTRUCTURE
     1 5BN         1 TEMP              0 ****  ****    0 ROOT
