@<TRIPOS>MOLECULE
molecule
   57    59     1     0     0
SMALL
bcc


@<TRIPOS>ATOM
      1 CAA          0.0000     0.0000     0.0000 c3         1 5BO      -0.092100
      2 CAB          5.2100    -1.4370    -2.7920 c3         1 5BO      -0.085100
      3 OAD          9.6160     0.0040     0.1240 o          1 5BO      -0.620500
      4 OAE          7.4270     0.5470     6.5060 o          1 5BO      -0.631800
      5 OAF          5.1940     0.5400     7.6280 o          1 5BO      -0.631800
      6 BrAG         8.6500     0.0020    -2.7680 br         1 5BO      -0.031700
      7 CAH          3.9600     0.0000     5.0470 ca         1 5BO       0.021000
      8 CAI          3.3330     0.0000     3.8170 ca         1 5BO      -0.247000
      9 CAJ          6.1070     0.0020     3.9810 ca         1 5BO       0.021000
     10 CAK          1.5310     0.0000     0.0000 c3         1 5BO      -0.080400
     11 CAL          5.5760     0.0000    -2.4170 c3         1 5BO      -0.044200
     12 CAM          2.0400     0.0000     1.4430 c3         1 5BO       0.128400
     13 CAN          7.1900    -3.6200     6.1060 c3         1 5BO       0.145300
     14 CAO          5.0190    -3.6220     7.1890 c3         1 5BO       0.145300
     15 CAP          7.5800    -2.3000     6.7790 c3         1 5BO       0.241300
     16 CAQ          5.3210    -2.3020     7.9050 c3         1 5BO       0.241300
     17 NAR          5.6810     0.0010     0.0400 nc         1 5BO      -0.640300
     18 NAS          7.6820     0.0030     1.2440 ns         1 5BO      -0.443400
     19 OAT          3.4690     0.0010     1.4430 os         1 5BO      -0.279900
     20 CAU          5.3430     0.0010     5.1280 ca         1 5BO      -0.353500
     21 CAV          4.0860     0.0010     2.6530 ca         1 5BO       0.223100
     22 CAW          6.3390     0.0020    -1.1180 cc         1 5BO       0.239400
     23 CAX          7.7040     0.0030    -1.1300 cd         1 5BO      -0.244500
     24 CAY          5.4840     0.0010     2.7290 ca         1 5BO      -0.171900
     25 CAZ          6.3200     0.0010     1.1930 cd         1 5BO       0.560500
     26 CBA          8.3960     0.0040     0.0980 c          1 5BO       0.696700
     27 NBB          6.2720    -4.3610     6.9820 n3         1 5BO      -0.726600
     28 NBC          6.3500    -1.5800     7.1430 n3         1 5BO      -0.819500
     29 HAA         -0.3610    -0.8960     0.4900 hc         1 5BO       0.039033
     30 HAAA        -0.3610     0.8730     0.5310 hc         1 5BO       0.039033
     31 HAAB        -0.3610     0.0240    -1.0210 hc         1 5BO       0.039033
     32 HAB          4.9640    -1.9930    -1.8950 hc         1 5BO       0.042367
     33 HABA         4.3560    -1.4310    -3.4590 hc         1 5BO       0.042367
     34 HABB         6.0520    -1.9060    -3.2880 hc         1 5BO       0.042367
     35 HAC          5.4610    -5.6280     5.5230 h1         1 5BO       0.034367
     36 HACA         5.4240    -6.2680     7.1710 h1         1 5BO       0.034367
     37 HACB         6.9500    -6.2150     6.2770 h1         1 5BO       0.034367
     38 HAH          3.3680    -0.0000     5.9540 ha         1 5BO       0.156000
     39 HAI          2.2510    -0.0010     3.7620 ha         1 5BO       0.151000
     40 HAJ          7.1890     0.0020     4.0490 ha         1 5BO       0.153000
     41 HAK          1.8920    -0.8850    -0.5110 hc         1 5BO       0.060200
     42 HAKA         1.8920     0.8850    -0.5110 hc         1 5BO       0.060200
     43 HAL          6.1910     0.4320    -3.1980 hc         1 5BO       0.069700
     44 HALA         4.6710     0.5860    -2.3060 hc         1 5BO       0.069700
     45 HAM          1.6790    -0.8850     1.9530 h1         1 5BO       0.038200
     46 HAMA         1.6790     0.8840     1.9540 h1         1 5BO       0.038200
     47 HAN          6.6990    -3.4120     5.1630 h1         1 5BO       0.039700
     48 HANA         8.0800    -4.2130     5.9340 h1         1 5BO       0.039700
     49 HAO          4.3460    -4.2160     7.7960 h1         1 5BO       0.039700
     50 HAOA         4.5610    -3.4150     6.2290 h1         1 5BO       0.039700
     51 HAP          8.1580    -2.5040     7.6720 h1         1 5BO       0.064700
     52 HAPA         8.1620    -1.6990     6.0900 h1         1 5BO       0.064700
     53 HAQ          5.6860    -2.5070     8.9040 h1         1 5BO       0.064700
     54 HAQA         4.4200    -1.7020     7.9570 h1         1 5BO       0.064700
     55 HNAS         8.1520     0.0030     2.1280 hn         1 5BO       0.342500
     56 SBD          6.1300     0.0010     6.7040 sy         1 5BO       1.427200
     57 CAC          6.0090    -5.7060     6.4540 c3         1 5BO       0.153100
@<TRIPOS>BOND
     1     1    10 1   
     2     2    11 1   
     3    57    27 1   
     4     3    26 2   
     5     4    56 2   
     6     5    56 2   
     7     6    23 1   
     8     7     8 ar  
     9     7    20 ar  
    10     8    21 ar  
    11     9    20 ar  
    12     9    24 ar  
    13    10    12 1   
    14    11    22 1   
    15    12    19 1   
    16    13    15 1   
    17    13    27 1   
    18    14    16 1   
    19    14    27 1   
    20    15    28 1   
    21    16    28 1   
    22    17    22 1   
    23    17    25 2   
    24    18    25 1   
    25    18    26 1   
    26    19    21 1   
    27    20    56 1   
    28    21    24 ar  
    29    22    23 2   
    30    23    26 1   
    31    24    25 1   
    32    28    56 1   
    33     1    29 1   
    34     1    30 1   
    35     1    31 1   
    36     2    32 1   
    37     2    33 1   
    38     2    34 1   
    39    57    35 1   
    40    57    36 1   
    41    57    37 1   
    42     7    38 1   
    43     8    39 1   
    44     9    40 1   
    45    10    41 1   
    46    10    42 1   
    47    11    43 1   
    48    11    44 1   
    49    12    45 1   
    50    12    46 1   
    51    13    47 1   
    52    13    48 1   
    53    14    49 1   
    54    14    50 1   
    55    15    51 1   
    56    15    52 1   
    57    16    53 1   
    58    16    54 1   
    59    18    55 1   
@<TRIPOS>SUBSTRUCTURE
     1 5BO         1 TEMP              0 ****  ****    0 ROOT
