@<TRIPOS>MOLECULE
5BP
   31    34     1     0     0
SMALL
bcc


@<TRIPOS>ATOM
      1 N1           0.0000     0.0000     0.0000 nc         1 5BP      -0.668100
      2 C4           0.6280    -0.0000     2.1470 cc         1 5BP      -0.212300
      3 C5           0.4450    -0.0010     3.5360 cc         1 5BP       0.010000
      4 C6          -0.8240    -0.0010     4.0370 cd         1 5BP      -0.259300
      5 C7          -1.9200    -0.0010     3.1690 cd         1 5BP       0.447200
      6 C10          3.1720     0.0010     1.7700 ca         1 5BP       0.588100
      7 C15          4.2160    -0.0030     0.8360 ca         1 5BP      -0.424600
      8 C17          6.3970     0.0000     5.2920 cx         1 5BP       0.069500
      9 C2           1.3130     0.0000     0.0000 cd         1 5BP       0.478500
     10 C3           1.7650     0.0000     1.3230 cd         1 5BP      -0.407400
     11 N8          -1.7510    -0.0010     1.8710 nc         1 5BP      -0.553800
     12 N9          -0.4650    -0.0010     1.3190 na         1 5BP       0.784500
     13 N11          3.4700     0.0000     3.0700 nb         1 5BP      -0.721000
     14 C12          4.7320     0.0000     3.4720 ca         1 5BP       0.729900
     15 N13          5.7370     0.0020     2.6080 nb         1 5BP      -0.710000
     16 C14          5.5160    -0.0080     1.3010 ca         1 5BP       0.500200
     17 N16          5.0080    -0.0000     4.8280 nu         1 5BP      -0.429900
     18 C18          6.7550     0.9360     6.4480 cx         1 5BP      -0.096900
     19 C19          6.6770    -0.5740     6.6820 cx         1 5BP      -0.096900
     20 H5           1.2990    -0.0000     4.2030 ha         1 5BP       0.143000
     21 H6          -0.9830    -0.0000     5.1090 ha         1 5BP       0.125000
     22 H7          -2.9230    -0.0010     3.5760 h4         1 5BP      -0.002900
     23 H15          4.0080    -0.0120    -0.2280 ha         1 5BP       0.128000
     24 H17          7.1900    -0.1530     4.5700 h1         1 5BP       0.097700
     25 H2           1.9440     0.0000    -0.8810 h4         1 5BP       0.018800
     26 H14          6.3460    -0.0090     0.6050 h4         1 5BP      -0.020900
     27 HN16         4.2580    -0.0290     5.4900 hn         1 5BP       0.291800
     28 H18          5.9340     1.5150     6.8530 hc         1 5BP       0.048200
     29 H18A         7.7550     1.3530     6.4190 hc         1 5BP       0.048200
     30 H19          5.8080    -0.9170     7.2300 hc         1 5BP       0.048200
     31 H19A         7.6290    -1.0790     6.7960 hc         1 5BP       0.048200
@<TRIPOS>BOND
     1     1     9 2   
     2     1    12 1   
     3     2     3 1   
     4     2    10 2   
     5     2    12 1   
     6     3     4 2   
     7     3    20 1   
     8     4     5 1   
     9     4    21 1   
    10     5    11 2   
    11     5    22 1   
    12     6     7 ar  
    13     6    10 1   
    14     6    13 ar  
    15     7    16 ar  
    16     7    23 1   
    17     8    17 1   
    18     8    18 1   
    19     8    19 1   
    20     8    24 1   
    21     9    10 1   
    22     9    25 1   
    23    11    12 1   
    24    13    14 ar  
    25    14    15 ar  
    26    14    17 1   
    27    15    16 ar  
    28    16    26 1   
    29    17    27 1   
    30    18    19 1   
    31    18    28 1   
    32    18    29 1   
    33    19    30 1   
    34    19    31 1   
@<TRIPOS>SUBSTRUCTURE
     1 5BP         1 TEMP              0 ****  ****    0 ROOT
