@<TRIPOS>MOLECULE
molecule
   34    35     1     0     0
SMALL
bcc


@<TRIPOS>ATOM
      1 OAB          0.0000     0.0000     0.0000 o          1 5BQ      -0.482100
      2 CAN          1.2070     0.0000     0.0000 c          1 5BQ       0.577600
      3 CAL          1.9840     0.0000     1.2970 c3         1 5BQ      -0.179900
      4 CAK          2.9620     1.1780     1.2920 c3         1 5BQ      -0.071400
      5 CAM          3.9020     1.0610     0.0900 c3         1 5BQ      -0.179900
      6 CAO          3.0790     1.0350    -1.1780 c          1 5BQ       0.577600
      7 OAC          3.2870     1.8230    -2.0700 o          1 5BQ      -0.482100
      8 CAT          1.9870    -0.0080    -1.2990 c3         1 5BQ      -0.373700
      9 CAP          1.0720     0.3320    -2.4480 c          1 5BQ       0.583700
     10 OAD          0.1170     1.0570    -2.2680 o          1 5BQ      -0.451100
     11 CAS          1.3370    -0.2170    -3.7860 ca         1 5BQ      -0.106600
     12 CAQ          0.4940     0.1010    -4.8570 ca         1 5BQ       0.055400
     13 ClA         -0.8720     1.1440    -4.6100 cl         1 5BQ      -0.048400
     14 CAJ          0.7510    -0.4190    -6.1110 ca         1 5BQ      -0.036000
     15 CAR          1.8390    -1.2490    -6.3080 ca         1 5BQ      -0.267500
     16 SAU          2.1590    -1.9060    -7.9120 sy         1 5BQ       1.190300
     17 OAE          2.8710    -3.1090    -7.6620 o          1 5BQ      -0.612300
     18 OAF          0.8860    -1.9260    -8.5430 o          1 5BQ      -0.612300
     19 CAA          3.2400    -0.6790    -8.6970 c3         1 5BQ      -0.224300
     20 CAH          2.6780    -1.5670    -5.2550 ca         1 5BQ      -0.045000
     21 CAI          2.4390    -1.0530    -3.9990 ca         1 5BQ      -0.108000
     22 H1           1.2990     0.1030     2.1300 hc         1 5BQ       0.074700
     23 H2           2.5360    -0.9280     1.3880 hc         1 5BQ       0.074700
     24 H3           3.5440     1.1660     2.2060 hc         1 5BQ       0.062200
     25 H4           2.4070     2.1060     1.2250 hc         1 5BQ       0.062200
     26 H5           4.5710     1.9130     0.0690 hc         1 5BQ       0.074700
     27 H6           4.4760     0.1450     0.1670 hc         1 5BQ       0.074700
     28 H7           2.4300    -0.9840    -1.4530 hc         1 5BQ       0.107700
     29 H8           0.1000    -0.1740    -6.9410 ha         1 5BQ       0.169000
     30 H9           2.7780     0.2990    -8.6380 h1         1 5BQ       0.101033
     31 H10          3.3920    -0.9440    -9.7360 h1         1 5BQ       0.101033
     32 H11          4.1940    -0.6590    -8.1860 h1         1 5BQ       0.101033
     33 H12          3.5300    -2.2170    -5.4190 ha         1 5BQ       0.157000
     34 H13          3.0970    -1.3040    -3.1760 ha         1 5BQ       0.138000
@<TRIPOS>BOND
     1     5     4 1
     2     5     6 1
     3     4     3 1
     4     3     2 1
     5     6     7 2
     6     6     8 1
     7     2     8 1
     8     2     1 2
     9     8     9 1
    10    13    12 1
    11     9    10 2
    12     9    11 1
    13    12    11 ar
    14    12    14 ar
    15    11    21 ar
    16    14    15 ar
    17    21    20 ar
    18    18    16 2
    19    15    20 ar
    20    15    16 1
    21    16    17 2
    22    16    19 1
    23     3    22 1
    24     3    23 1
    25     4    24 1
    26     4    25 1
    27     5    26 1
    28     5    27 1
    29     8    28 1
    30    14    29 1
    31    19    30 1
    32    19    31 1
    33    19    32 1
    34    20    33 1
    35    21    34 1
@<TRIPOS>SUBSTRUCTURE
     1 5BQ         1 TEMP              0 ****  ****    0 ROOT
