@<TRIPOS>MOLECULE
molecule
   17    16     1     0     0
SMALL
bcc


@<TRIPOS>ATOM
      1 Br1          0.0000     0.0000     0.0000 br         1 5BR      -0.188400
      2 C1           1.9660     0.0000     0.0000 c3         1 5BR       0.006000
      3 C2           2.4770     0.0000     1.4410 c3         1 5BR      -0.084400
      4 C3           4.0060    -0.0000     1.4410 c3         1 5BR      -0.083400
      5 C4           4.5170     0.0000     2.8820 c3         1 5BR      -0.082400
      6 C5           6.0470    -0.0000     2.8820 c3         1 5BR      -0.092100
      7 H11          2.3270    -0.8840    -0.5110 h1         1 5BR       0.069700
      8 H12          2.3270     0.8840    -0.5110 h1         1 5BR       0.069700
      9 H21          2.1160    -0.8840     1.9520 hc         1 5BR       0.055700
     10 H22          2.1160     0.8840     1.9520 hc         1 5BR       0.055700
     11 H31          4.3670    -0.8840     0.9300 hc         1 5BR       0.042700
     12 H32          4.3670     0.8840     0.9300 hc         1 5BR       0.042700
     13 H41          4.1560     0.8840     3.3930 hc         1 5BR       0.042700
     14 H42          4.1560    -0.8840     3.3930 hc         1 5BR       0.042700
     15 H51          6.4080    -0.8850     2.3710 hc         1 5BR       0.034033
     16 H52          6.4080    -0.0000     3.9030 hc         1 5BR       0.034033
     17 H53          6.4080     0.8850     2.3710 hc         1 5BR       0.034033
@<TRIPOS>BOND
     1     1     2 1
     2     2     3 1
     3     2     7 1
     4     2     8 1
     5     3     4 1
     6     3     9 1
     7     3    10 1
     8     4     5 1
     9     4    11 1
    10     4    12 1
    11     5     6 1
    12     5    13 1
    13     5    14 1
    14     6    15 1
    15     6    16 1
    16     6    17 1
@<TRIPOS>SUBSTRUCTURE
     1 5BR         1 TEMP              0 ****  ****    0 ROOT
