@<TRIPOS>MOLECULE
5BR
   17    16     1     0     0
SMALL
bcc


@<TRIPOS>ATOM
      1 BR1         0.0340    0.0000   -0.0780 br        1 5BR     -0.179400
      2 C1          1.9580   -0.0000    0.0280 c3        1 5BR     -0.008000
      3 C2          2.4770   -0.0000    1.4440 c3        1 5BR     -0.081400
      4 C3          3.9920    0.0000    1.4500 c3        1 5BR     -0.081400
      5 C4          4.5310   -0.0000    2.8650 c3        1 5BR     -0.079400
      6 C5          6.0380    0.0000    2.8800 c3        1 5BR     -0.093100
      7 H11         2.3030    0.9080   -0.5190 h1        1 5BR      0.071700
      8 H12         2.3020   -0.9080   -0.5190 h1        1 5BR      0.071700
      9 H21         2.1010    0.9040    1.9930 hc        1 5BR      0.055700
     10 H22         2.1010   -0.9040    1.9930 hc        1 5BR      0.055700
     11 H31         4.3720    0.9030    0.9030 hc        1 5BR      0.041700
     12 H32         4.3720   -0.9030    0.9030 hc        1 5BR      0.041700
     13 H41         4.1480   -0.9030    3.4100 hc        1 5BR      0.040700
     14 H42         4.1480    0.9020    3.4100 hc        1 5BR      0.040700
     15 H51         6.4380    0.9050    2.3620 hc        1 5BR      0.034367
     16 H52         6.4390   -0.9050    2.3620 hc        1 5BR      0.034367
     17 H53         6.4150    0.0000    3.9320 hc        1 5BR      0.034367
@<TRIPOS>BOND
     1    1    2 1   
     2    2    3 1   
     3    2    7 1   
     4    2    8 1   
     5    3    4 1   
     6    3    9 1   
     7    3   10 1   
     8    4    5 1   
     9    4   11 1   
    10    4   12 1   
    11    5    6 1   
    12    5   13 1   
    13    5   14 1   
    14    6   15 1   
    15    6   16 1   
    16    6   17 1   
@<TRIPOS>SUBSTRUCTURE
     1 5BR         1 TEMP              0 ****  ****    0 ROOT
