@<TRIPOS>MOLECULE
5BS
   45    48     1     0     0
SMALL
bcc


@<TRIPOS>ATOM
      1 C4           0.0000     0.0000     0.0000 ca         1 5BS       0.562200
      2 C5           1.3990     0.0000     0.0000 ca         1 5BS      -0.340000
      3 C6           2.0670     0.0000     1.2090 ca         1 5BS       0.419200
      4 N1           1.3570    -0.0010     2.3320 nb         1 5BS      -0.700000
      5 N3          -0.6420    -0.0000     1.1620 nb         1 5BS      -0.717000
      6 NAZ          2.2720     0.0010    -1.0990 n          1 5BS       0.039000
      7 CAU          1.9620     0.0000    -2.4090 c          1 5BS       0.669100
      8 OAD          2.9150     0.0010    -3.1670 o          1 5BS      -0.658500
      9 CAY          0.6880     0.0000    -3.0380 cc         1 5BS      -0.118700
     10 SAQ          0.5120    -0.0000    -4.7900 ss         1 5BS      -0.100800
     11 CAG         -1.1880    -0.0030    -4.6740 cc         1 5BS       0.028900
     12 CAL         -1.5830    -0.0030    -3.4040 cd         1 5BS      -0.187000
     13 CAW         -0.5660    -0.0020    -2.4570 cd         1 5BS       0.035600
     14 NBA         -0.8660     0.0060    -1.0820 na         1 5BS      -0.211700
     15 CAB         -2.2930     0.0030    -0.7460 c3         1 5BS       0.126100
     16 C2           0.0350    -0.0010     2.3020 ca         1 5BS       0.686900
     17 NAP         -0.6650    -0.0020     3.5000 nu         1 5BS      -0.277300
     18 CAR          0.0220    -0.1170     4.7110 ca         1 5BS       0.117600
     19 CAH         -0.4400     0.5500     5.8390 ca         1 5BS      -0.150500
     20 CAJ          0.2430     0.4350     7.0350 ca         1 5BS       0.036500
     21 CAT          1.3840    -0.3430     7.1100 ca         1 5BS      -0.266500
     22 SBB          2.2500    -0.4870     8.6370 sy         1 5BS       0.931200
     23 OAE          3.5870    -0.8390     8.3080 o          1 5BS      -0.500800
     24 OAF          1.9150     0.6640     9.3990 o          1 5BS      -0.500800
     25 NAC          1.6100    -1.7840     9.4430 nz         1 5BS      -0.134500
     26 CAK          1.8450    -1.0070     5.9890 ca         1 5BS       0.036500
     27 CAI          1.1650    -0.9010     4.7910 ca         1 5BS      -0.150500
     28 H1           3.1500    -0.0000     1.2410 h4         1 5BS       0.024100
     29 H2           4.2760     0.0160    -1.7000 h1         1 5BS       0.035700
     30 H3           3.9460    -0.8920    -0.2180 h1         1 5BS       0.035700
     31 H4           3.9410     0.8770    -0.1910 h1         1 5BS       0.035700
     32 H7          -1.8590    -0.0030    -5.5250 h4         1 5BS       0.157000
     33 H8          -2.6300    -0.0040    -3.1260 ha         1 5BS       0.138000
     34 H9          -2.7400    -0.9250    -1.0800 h1         1 5BS       0.035700
     35 H10         -2.4120     0.0970     0.3260 h1         1 5BS       0.035700
     36 H11         -2.7810     0.8360    -1.2380 h1         1 5BS       0.035700
     37 H12         -1.6650     0.0570     3.4950 hn         1 5BS       0.304800
     38 H13         -1.3330     1.1590     5.7810 ha         1 5BS       0.145500
     39 H14         -0.1170     0.9550     7.9150 ha         1 5BS       0.121500
     40 H15          2.0740    -1.8920    10.3230 hn         1 5BS       0.311467
     41 H16          1.7360    -2.6130     8.8960 hn         1 5BS       0.311467
     42 H17          2.7390    -1.6170     6.0510 ha         1 5BS       0.121500
     43 H18          1.5280    -1.4220     3.9130 ha         1 5BS       0.145500
     44 CAA          3.7020     0.0000    -0.7810 c3         1 5BS       0.020300
     45 HAC3         0.6330    -1.6320     9.5970 hn         1 5BS       0.311467
@<TRIPOS>BOND
     1     1     2 ar  
     2     1     5 ar  
     3     1    14 1   
     4     2     3 ar  
     5     2     6 1   
     6     3     4 ar  
     7     3    28 1   
     8     4    16 ar  
     9     5    16 ar  
    10     6     7 1   
    11     6    44 1   
    12     7     8 2   
    13     7     9 1   
    14     9    10 1   
    15     9    13 2   
    16    10    11 1   
    17    11    12 2   
    18    11    32 1   
    19    12    13 1   
    20    12    33 1   
    21    13    14 1   
    22    14    15 1   
    23    15    34 1   
    24    15    35 1   
    25    15    36 1   
    26    16    17 1   
    27    17    18 1   
    28    17    37 1   
    29    18    19 ar  
    30    18    27 ar  
    31    19    20 ar  
    32    19    38 1   
    33    20    21 ar  
    34    20    39 1   
    35    21    22 1   
    36    21    26 ar  
    37    22    23 2   
    38    22    24 2   
    39    22    25 1   
    40    25    40 1   
    41    25    41 1   
    42    25    45 1   
    43    26    27 ar  
    44    26    42 1   
    45    27    43 1   
    46    29    44 1   
    47    30    44 1   
    48    31    44 1   
@<TRIPOS>SUBSTRUCTURE
     1 5BS         1 TEMP              0 ****  ****    0 ROOT
