@<TRIPOS>MOLECULE
molecule
   45    48     1     0     0
SMALL
bcc


@<TRIPOS>ATOM
      1 C4           0.0000     0.0000     0.0000 ca         1 5BS       0.751200
      2 C5           1.3990     0.0000     0.0000 ca         1 5BS      -0.206000
      3 C6           2.0670     0.0000     1.2090 ca         1 5BS       0.448200
      4 N1           1.3570    -0.0010     2.3320 nb         1 5BS      -0.808000
      5 N3          -0.6420    -0.0000     1.1620 nb         1 5BS      -0.822000
      6 NAZ          2.2720     0.0010    -1.0990 n          1 5BS      -0.364000
      7 CAU          1.9620     0.0000    -2.4090 c          1 5BS       0.757100
      8 OAD          2.9150     0.0010    -3.1670 o          1 5BS      -0.637500
      9 CAY          0.6880     0.0000    -3.0380 cc         1 5BS      -0.194700
     10 SAQ          0.5120    -0.0000    -4.7900 ss         1 5BS       0.079200
     11 CAG         -1.1880    -0.0030    -4.6740 cc         1 5BS      -0.086100
     12 CAL         -1.5830    -0.0030    -3.4040 cd         1 5BS      -0.206000
     13 CAW         -0.5660    -0.0020    -2.4570 cd         1 5BS       0.194600
     14 NBA         -0.8660     0.0060    -1.0820 na         1 5BS      -0.645700
     15 CAB         -2.2930     0.0030    -0.7460 c3         1 5BS       0.197100
     16 C2           0.0350    -0.0010     2.3020 ca         1 5BS       0.914900
     17 NAP         -0.6650    -0.0020     3.5000 nu         1 5BS      -0.748300
     18 CAR          0.0220    -0.1170     4.7110 ca         1 5BS       0.279600
     19 CAH         -0.4400     0.5500     5.8390 ca         1 5BS      -0.162000
     20 CAJ          0.2430     0.4350     7.0350 ca         1 5BS      -0.009000
     21 CAT          1.3840    -0.3430     7.1100 ca         1 5BS      -0.376500
     22 SBB          2.2500    -0.4870     8.6370 sy         1 5BS       1.223200
     23 OAE          3.5870    -0.8390     8.3080 o          1 5BS      -0.525800
     24 OAF          1.9150     0.6640     9.3990 o          1 5BS      -0.525800
     25 NAC          1.6100    -1.7840     9.4430 nz         1 5BS      -0.805500
     26 CAK          1.8450    -1.0070     5.9890 ca         1 5BS      -0.009000
     27 CAI          1.1650    -0.9010     4.7910 ca         1 5BS      -0.162000
     28 H1           3.1500    -0.0000     1.2410 h4         1 5BS       0.058100
     29 H2           4.2760     0.0160    -1.7000 h1         1 5BS       0.061367
     30 H3           3.9460    -0.8920    -0.2180 h1         1 5BS       0.061367
     31 H4           3.9410     0.8770    -0.1910 h1         1 5BS       0.061367
     32 H7          -1.8590    -0.0030    -5.5250 h4         1 5BS       0.186000
     33 H8          -2.6300    -0.0040    -3.1260 ha         1 5BS       0.158000
     34 H9          -2.7400    -0.9250    -1.0800 h1         1 5BS       0.061033
     35 H10         -2.4120     0.0970     0.3260 h1         1 5BS       0.061033
     36 H11         -2.7810     0.8360    -1.2380 h1         1 5BS       0.061033
     37 H12         -1.6650     0.0570     3.4950 hn         1 5BS       0.479800
     38 H13         -1.3330     1.1590     5.7810 ha         1 5BS       0.176000
     39 H14         -0.1170     0.9550     7.9150 ha         1 5BS       0.153500
     40 H15          2.0740    -1.8920    10.3230 hn         1 5BS       0.489467
     41 H16          1.7360    -2.6130     8.8960 hn         1 5BS       0.489467
     42 H17          2.7390    -1.6170     6.0510 ha         1 5BS       0.153500
     43 H18          1.5280    -1.4220     3.9130 ha         1 5BS       0.176000
     44 CAA          3.7020     0.0000    -0.7810 c3         1 5BS       0.071300
     45 HAC3         0.6330    -1.6320     9.5970 hn         1 5BS       0.489467
@<TRIPOS>BOND
     1     1     2 ar  
     2     1     5 ar  
     3     1    14 1   
     4     2     3 ar  
     5     2     6 1   
     6     3     4 ar  
     7     4    16 ar  
     8     5    16 ar  
     9    44     6 1   
    10     6     7 1   
    11     7     8 2   
    12     7     9 1   
    13     9    10 1   
    14     9    13 2   
    15    10    11 1   
    16    11    12 2   
    17    12    13 1   
    18    13    14 1   
    19    14    15 1   
    20    16    17 1   
    21    17    18 1   
    22    18    19 ar  
    23    18    27 ar  
    24    19    20 ar  
    25    20    21 ar  
    26    21    22 1   
    27    21    26 ar  
    28    22    23 2   
    29    22    24 2   
    30    22    25 1   
    31    26    27 ar  
    32     3    28 1   
    33    44    29 1   
    34    44    30 1   
    35    44    31 1   
    36    11    32 1   
    37    12    33 1   
    38    15    34 1   
    39    15    35 1   
    40    15    36 1   
    41    17    37 1   
    42    19    38 1   
    43    20    39 1   
    44    25    40 1   
    45    25    41 1   
    46    26    42 1   
    47    27    43 1   
    48    45    25 1   
@<TRIPOS>SUBSTRUCTURE
     1 5BS         1 TEMP              0 ****  ****    0 ROOT
