@<TRIPOS>MOLECULE
5BT
   30    31     1     0     0
SMALL
bcc


@<TRIPOS>ATOM
      1 N1           0.0000     0.0000     0.0000 n          1 5BT       0.138000
      2 C2           1.3460     0.0000     0.0000 c          1 5BT       0.673900
      3 O2           1.9460     0.0020    -1.0620 o          1 5BT      -0.561500
      4 N3           2.0330     0.0000     1.1410 nc         1 5BT      -0.472100
      5 C4           1.4060    -0.0010     2.3100 cd         1 5BT       0.289500
      6 N4           2.1270    -0.0010     3.4820 nz         1 5BT       0.190400
      7 C5          -0.0050    -0.0030     2.3450 cd         1 5BT      -0.326900
      8 Br5         -0.9240    -0.0040     3.9970 br         1 5BT       0.019300
      9 C6          -0.6890    -0.0020     1.1760 cc         1 5BT       0.018600
     10 C1'         -0.7280     0.0060    -1.2710 c3         1 5BT       0.201500
     11 C2'         -0.3980     1.2850    -2.0740 c3         1 5BT      -0.104400
     12 C3'         -0.3540     0.8050    -3.5420 c3         1 5BT       0.171100
     13 O3'         -1.3500     1.4760    -4.3170 oh         1 5BT      -0.572800
     14 C4'         -0.6630    -0.7060    -3.4530 c3         1 5BT       0.167100
     15 O4'         -0.2840    -1.0810    -2.1110 os         1 5BT      -0.370600
     16 C5'          0.1680    -1.4800    -4.4780 c3         1 5BT       0.225400
     17 O5'         -0.2160    -2.8560    -4.4600 oh         1 5BT      -0.586800
     18 HN4          1.9000    -0.8190     4.0120 hn         1 5BT       0.226800
     19 HN4A         3.1050    -0.0000     3.2710 hn         1 5BT       0.226800
     20 H6          -1.7720    -0.0030     1.1760 h4         1 5BT       0.167000
     21 H1'         -1.7950    -0.0640    -1.1010 h2         1 5BT       0.051700
     22 H2'          0.5660     1.6800    -1.7760 hc         1 5BT       0.050200
     23 H2'A        -1.1770     2.0260    -1.9410 hc         1 5BT       0.050200
     24 H3'          0.6320     0.9650    -3.9610 h1         1 5BT       0.030700
     25 HO3'        -0.9430     2.1430    -4.8450 ho         1 5BT       0.406000
     26 H4'         -1.7210    -0.8810    -3.6070 h1         1 5BT       0.051700
     27 H5'          1.2190    -1.3950    -4.2280 h1         1 5BT       0.003700
     28 H5'A        -0.0030    -1.0700    -5.4660 h1         1 5BT       0.003700
     29 HO5'         0.2510    -3.3210    -5.1350 ho         1 5BT       0.402000
     30 H43          1.8950     0.8130     4.0160 hn         1 5BT       0.226800
@<TRIPOS>BOND
     1     1     2 1   
     2     1     9 1   
     3     1    10 1   
     4     2     3 2   
     5     2     4 1   
     6     4     5 2   
     7     5     6 1   
     8     5     7 1   
     9     6    18 1   
    10     6    19 1   
    11     6    30 1   
    12     7     8 1   
    13     7     9 2   
    14     9    20 1   
    15    10    11 1   
    16    10    15 1   
    17    10    21 1   
    18    11    12 1   
    19    11    22 1   
    20    11    23 1   
    21    12    13 1   
    22    12    14 1   
    23    12    24 1   
    24    13    25 1   
    25    14    15 1   
    26    14    16 1   
    27    14    26 1   
    28    16    17 1   
    29    16    27 1   
    30    16    28 1   
    31    17    29 1   
@<TRIPOS>SUBSTRUCTURE
     1 5BT         1 TEMP              0 ****  ****    0 ROOT
