@<TRIPOS>MOLECULE
5BV
   40    39     1     0     0
SMALL
bcc


@<TRIPOS>ATOM
      1 O34          0.0000     0.0000     0.0000 o          1 5BV      -0.567000
      2 O35          1.8780     0.0000     1.1630 os         1 5BV      -0.382900
      3 O46         -1.0430    -2.6130     1.9400 o          1 5BV      -0.892300
      4 N31          1.0090     0.0010    -2.4210 nz         1 5BV       0.106400
      5 C32          1.9620     0.0010    -1.3050 c3         1 5BV      -0.109200
      6 C33          1.2080     0.0000     0.0000 c          1 5BV       0.738100
      7 C36          1.0870    -0.0020     2.3800 c3         1 5BV       0.290100
      8 C37          1.8570     0.7200     3.4890 c3         1 5BV      -0.216400
      9 C38          2.0260     2.1940     3.1170 c3         1 5BV       0.021600
     10 C39          2.7960     2.9150     4.2260 c3         1 5BV      -0.029400
     11 C40          2.9650     4.3890     3.8540 c3         1 5BV      -0.030400
     12 C41          3.7340     5.1100     4.9630 c3         1 5BV      -0.028400
     13 C42          3.9030     6.5840     4.5910 c3         1 5BV       0.006900
     14 C43          0.8090    -1.4440     2.8070 c3         1 5BV      -0.196700
     15 C44         -0.0250    -1.4440     4.0900 c3         1 5BV      -0.075100
     16 C45          0.0520    -2.1530     1.7150 c          1 5BV       1.000600
     17 H1           0.5010    -0.8610    -2.4270 hn         1 5BV       0.221800
     18 H2           1.5060     0.1010    -3.2840 hn         1 5BV       0.221800
     19 H4           2.5840     0.8860    -1.3610 hx         1 5BV       0.089200
     20 H5           2.5850    -0.8830    -1.3630 hx         1 5BV       0.089200
     21 H6           0.1490     0.5090     2.2020 h1         1 5BV       0.022700
     22 H7           0.8270     0.9830     3.2810 hc         1 5BV       0.074700
     23 H8           1.8130     0.4070     4.5260 hc         1 5BV       0.074700
     24 H9           2.5760     2.2710     2.1870 hc         1 5BV       0.000700
     25 H10          1.0510     2.6510     2.9990 hc         1 5BV       0.000700
     26 H11          3.7710     2.4580     4.3450 hc         1 5BV       0.019700
     27 H12          2.2460     2.8380     5.1560 hc         1 5BV       0.019700
     28 H13          3.5150     4.4660     2.9240 hc         1 5BV       0.010700
     29 H14          1.9900     4.8460     3.7360 hc         1 5BV       0.010700
     30 H15          4.7090     4.6530     5.0810 hc         1 5BV       0.013700
     31 H16          3.1840     5.0330     5.8930 hc         1 5BV       0.013700
     32 H17          4.4480     7.0940     5.3760 hc         1 5BV      -0.000967
     33 H18          4.4540     6.6610     3.6610 hc         1 5BV      -0.000967
     34 H19          2.9280     7.0410     4.4720 hc         1 5BV      -0.000967
     35 H20          1.7470    -1.9540     2.9870 hc         1 5BV       0.046700
     36 H21          0.8970    -1.9640     4.3220 hc         1 5BV       0.035367
     37 H22         -0.9040    -2.0770     4.0570 hc         1 5BV       0.035367
     38 H23         -0.1280    -0.4750     4.5620 hc         1 5BV       0.035367
     39 O1           0.5930    -2.2750     0.4930 o          1 5BV      -0.892300
     40 H313         0.3810     0.7740    -2.3240 hn         1 5BV       0.221800
@<TRIPOS>BOND
     1     1     6 2   
     2     2     6 1   
     3     2     7 1   
     4     3    16 1   
     5     4     5 1   
     6     4    17 1   
     7     4    18 1   
     8     4    40 1   
     9     5     6 1   
    10     5    19 1   
    11     5    20 1   
    12     7     8 1   
    13     7    14 1   
    14     7    21 1   
    15     8     9 1   
    16     8    22 1   
    17     8    23 1   
    18     9    10 1   
    19     9    24 1   
    20     9    25 1   
    21    10    11 1   
    22    10    26 1   
    23    10    27 1   
    24    11    12 1   
    25    11    28 1   
    26    11    29 1   
    27    12    13 1   
    28    12    30 1   
    29    12    31 1   
    30    13    32 1   
    31    13    33 1   
    32    13    34 1   
    33    14    15 1   
    34    14    16 1   
    35    14    35 1   
    36    15    36 1   
    37    15    37 1   
    38    15    38 1   
    39    16    39 1   
@<TRIPOS>SUBSTRUCTURE
     1 5BV         1 TEMP              0 ****  ****    0 ROOT
