@<TRIPOS>MOLECULE
molecule
   40    39     1     0     0
SMALL
bcc


@<TRIPOS>ATOM
      1 O34          0.0000     0.0000     0.0000 o          1 5BV      -0.534000
      2 O35          1.8780     0.0000     1.1630 os         1 5BV      -0.398900
      3 O46         -1.0430    -2.6130     1.9400 o          1 5BV      -0.842800
      4 N31          1.0090     0.0010    -2.4210 nz         1 5BV      -0.793600
      5 C32          1.9620     0.0010    -1.3050 c3         1 5BV       0.047800
      6 C33          1.2080     0.0000     0.0000 c          1 5BV       0.661100
      7 C36          1.0870    -0.0020     2.3800 c3         1 5BV       0.231100
      8 C37          1.8570     0.7200     3.4890 c3         1 5BV      -0.214400
      9 C38          2.0260     2.1940     3.1170 c3         1 5BV      -0.051400
     10 C39          2.7960     2.9150     4.2260 c3         1 5BV      -0.079400
     11 C40          2.9650     4.3890     3.8540 c3         1 5BV      -0.083400
     12 C41          3.7340     5.1100     4.9630 c3         1 5BV      -0.084400
     13 C42          3.9030     6.5840     4.5910 c3         1 5BV      -0.092100
     14 C43          0.8090    -1.4440     2.8070 c3         1 5BV      -0.204700
     15 C44         -0.0250    -1.4440     4.0900 c3         1 5BV      -0.139100
     16 C45          0.0520    -2.1530     1.7150 c          1 5BV       0.908600
     17 H1           0.5010    -0.8610    -2.4270 hn         1 5BV       0.459467
     18 H2           1.5060     0.1010    -3.2840 hn         1 5BV       0.459467
     19 H4           2.5840     0.8860    -1.3610 hx         1 5BV       0.121200
     20 H5           2.5850    -0.8830    -1.3630 hx         1 5BV       0.121200
     21 H6           0.1490     0.5090     2.2020 h1         1 5BV       0.051700
     22 H7           0.8270     0.9830     3.2810 hc         1 5BV       0.094700
     23 H8           1.8130     0.4070     4.5260 hc         1 5BV       0.094700
     24 H9           2.5760     2.2710     2.1870 hc         1 5BV       0.029700
     25 H10          1.0510     2.6510     2.9990 hc         1 5BV       0.029700
     26 H11          3.7710     2.4580     4.3450 hc         1 5BV       0.046700
     27 H12          2.2460     2.8380     5.1560 hc         1 5BV       0.046700
     28 H13          3.5150     4.4660     2.9240 hc         1 5BV       0.037700
     29 H14          1.9900     4.8460     3.7360 hc         1 5BV       0.037700
     30 H15          4.7090     4.6530     5.0810 hc         1 5BV       0.041700
     31 H16          3.1840     5.0330     5.8930 hc         1 5BV       0.041700
     32 H17          4.4480     7.0940     5.3760 hc         1 5BV       0.031367
     33 H18          4.4540     6.6610     3.6610 hc         1 5BV       0.031367
     34 H19          2.9280     7.0410     4.4720 hc         1 5BV       0.031367
     35 H20          1.7470    -1.9540     2.9870 hc         1 5BV       0.064700
     36 H21          0.8970    -1.9640     4.3220 hc         1 5BV       0.059700
     37 H22         -0.9040    -2.0770     4.0570 hc         1 5BV       0.059700
     38 H23         -0.1280    -0.4750     4.5620 hc         1 5BV       0.059700
     39 O1           0.5930    -2.2750     0.4930 o          1 5BV      -0.842800
     40 H313         0.3810     0.7740    -2.3240 hn         1 5BV       0.459467
@<TRIPOS>BOND
     1     4     5 1   
     2     1     6 2   
     3     3    16 1   
     4     6     5 1   
     5     6     2 1   
     6    16    14 1   
     7     2     7 1   
     8     7    14 1   
     9     7     8 1   
    10     9     8 1   
    11     9    10 1   
    12    14    15 1   
    13    10    11 1   
    14    11    12 1   
    15    12    13 1   
    16     4    17 1   
    17     4    18 1   
    18     5    19 1   
    19     5    20 1   
    20     7    21 1   
    21     8    22 1   
    22     8    23 1   
    23     9    24 1   
    24     9    25 1   
    25    10    26 1   
    26    10    27 1   
    27    11    28 1   
    28    11    29 1   
    29    12    30 1   
    30    12    31 1   
    31    13    32 1   
    32    13    33 1   
    33    13    34 1   
    34    14    35 1   
    35    15    36 1   
    36    15    37 1   
    37    15    38 1   
    38    16    39 1   
    39    40     4 1   
@<TRIPOS>SUBSTRUCTURE
     1 5BV         1 TEMP              0 ****  ****    0 ROOT
