@<TRIPOS>MOLECULE
molecule
   43    46     1     0     0
SMALL
bcc


@<TRIPOS>ATOM
      1 CAW          0.0000     0.0000     0.0000 ca         1 5BW      -0.287300
      2 CAV          1.3830     0.0000     0.0000 ca         1 5BW      -0.070000
      3 CAU          2.0460     0.0000     1.2200 ca         1 5BW      -0.284300
      4 CAT          1.3110    -0.0000     2.3880 ca         1 5BW       0.452200
      5 NAS         -0.0090     0.0000     2.3580 nb         1 5BW      -0.731000
      6 CAR         -0.6760     0.0060     1.2150 ca         1 5BW       0.612200
      7 NAO         -2.0670     0.0060     1.2300 nh         1 5BW      -0.675300
      8 CAN         -2.5850    -0.5240     2.5140 c3         1 5BW       0.135800
      9 CAM         -3.4920    -1.7310     2.1190 c3         1 5BW       0.198500
     10 CAX         -4.0400    -1.2100     0.7430 c3         1 5BW      -0.101400
     11 CAP         -2.6150    -0.8910     0.1640 c3         1 5BW       0.146500
     12 CAQ         -1.9150    -2.2610     0.4230 c3         1 5BW       0.182800
     13 NAL         -2.5270    -2.7850     1.6860 nh         1 5BW      -0.717400
     14 CAK         -2.2580    -3.9770     2.2940 c2         1 5BW       0.209000
     15 CAH         -1.3550    -4.8240     1.7520 ce         1 5BW      -0.429200
     16 CAG         -1.0780    -6.0590     2.3810 c          1 5BW       0.602900
     17 OAI         -1.6530    -6.3590     3.4130 o          1 5BW      -0.561100
     18 CAE         -0.0910    -6.9850     1.7890 ca         1 5BW      -0.176600
     19 CAF          0.5730    -6.6420     0.6100 ca         1 5BW      -0.073000
     20 CAA          1.4970    -7.5090     0.0640 ca         1 5BW      -0.168000
     21 CAB          1.7690    -8.7180     0.6810 ca         1 5BW      -0.085000
     22 CAC          1.1180    -9.0690     1.8480 ca         1 5BW      -0.207000
     23 CAD          0.1860    -8.2100     2.4100 ca         1 5BW       0.170100
     24 OAJ         -0.4490    -8.5520     3.5590 oh         1 5BW      -0.480100
     25 H1          -0.5490     0.0020    -0.9340 ha         1 5BW       0.139000
     26 H2           1.9370    -0.0020    -0.9310 ha         1 5BW       0.138000
     27 H3           3.1280    -0.0000     1.2550 ha         1 5BW       0.140000
     28 H4           1.8240    -0.0020     3.3430 h4         1 5BW       0.026100
     29 H5          -1.7670    -0.8570     3.1410 h1         1 5BW       0.083700
     30 H6          -3.1680     0.2330     3.0250 h1         1 5BW       0.083700
     31 H7          -4.2380    -2.0290     2.8460 h1         1 5BW       0.098700
     32 H8          -4.5430    -1.9880     0.1830 hc         1 5BW       0.073700
     33 H9          -4.6440    -0.3180     0.8550 hc         1 5BW       0.073700
     34 H10         -2.5840    -0.5150    -0.8520 h1         1 5BW       0.107700
     35 H11         -0.8490    -2.1200     0.5530 h1         1 5BW       0.060700
     36 H12         -2.1070    -2.9420    -0.3970 h1         1 5BW       0.060700
     37 H13         -2.7700    -4.2440     3.2110 h4         1 5BW       0.173000
     38 H14         -0.8450    -4.5570     0.8350 ha         1 5BW       0.127000
     39 H15          0.3630    -5.6970     0.1240 ha         1 5BW       0.137000
     40 H16          2.0120    -7.2420    -0.8500 ha         1 5BW       0.130000
     41 H17          2.4960    -9.3930     0.2460 ha         1 5BW       0.130000
     42 H18          1.3360   -10.0180     2.3240 ha         1 5BW       0.136000
     43 H19         -0.8320    -9.4080     3.4640 ho         1 5BW       0.418000
@<TRIPOS>BOND
     1    20    21 ar  
     2    20    19 ar  
     3    21    22 ar  
     4     4     3 ar  
     5     4     5 ar  
     6    19    18 ar  
     7    22    23 ar  
     8     3     2 ar  
     9     5     6 ar  
    10    18    23 ar  
    11    18    16 1   
    12    23    24 1   
    13     2     1 ar  
    14    12    11 1   
    15    12    13 1   
    16     6     1 ar  
    17     6     7 1   
    18    15    16 1   
    19    15    14 2   
    20    16    17 2   
    21    11     7 1   
    22    11    10 1   
    23     7     8 1   
    24    13    14 1   
    25    13     9 1   
    26    10     9 1   
    27     8     9 1   
    28     1    25 1   
    29     2    26 1   
    30     3    27 1   
    31     4    28 1   
    32     8    29 1   
    33     8    30 1   
    34     9    31 1   
    35    10    32 1   
    36    10    33 1   
    37    11    34 1   
    38    12    35 1   
    39    12    36 1   
    40    14    37 1   
    41    15    38 1   
    42    19    39 1   
    43    20    40 1   
    44    21    41 1   
    45    22    42 1   
    46    24    43 1   
@<TRIPOS>SUBSTRUCTURE
     1 5BW         1 TEMP              0 ****  ****    0 ROOT
