@<TRIPOS>MOLECULE
5BW
   43    48     1     0     0
SMALL
bcc


@<TRIPOS>ATOM
      1 CAW          0.0000     0.0000     0.0000 c2         1 5BW      -0.195000
      2 CAV          1.3830     0.0000     0.0000 c2         1 5BW      -0.034000
      3 CAU          2.0460     0.0000     1.2200 c2         1 5BW      -0.181000
      4 CAT          1.3110    -0.0000     2.3880 c2         1 5BW      -0.027000
      5 NAS         -0.0090     0.0000     2.3580 n2         1 5BW      -0.091000
      6 CAR         -0.6760     0.0060     1.2150 c2         1 5BW      -0.038000
      7 NAO         -2.0670     0.0060     1.2300 nh         1 5BW       0.042000
      8 CAN         -2.5850    -0.5240     2.5140 c3         1 5BW      -0.125000
      9 CAM         -3.4920    -1.7310     2.1190 c3         1 5BW      -0.082000
     10 CAX         -4.0400    -1.2100     0.7430 c3         1 5BW      -0.128000
     11 CAP         -2.6150    -0.8910     0.1640 c3         1 5BW      -0.078000
     12 CAQ         -1.9150    -2.2610     0.4230 c3         1 5BW      -0.224000
     13 NAL         -2.5270    -2.7850     1.6860 nx         1 5BW       0.216000
     14 CAK         -2.2580    -3.9770     2.2940 c2         1 5BW      -0.148000
     15 CAH         -1.3550    -4.8240     1.7520 c2         1 5BW      -0.657000
     16 CAG         -1.0780    -6.0590     2.3810 c3         1 5BW       0.381000
     17 OAI         -1.6530    -6.3590     3.4130 o          1 5BW      -0.365000
     18 CAE         -0.0910    -6.9850     1.7890 ca         1 5BW      -0.184000
     19 CAF          0.5730    -6.6420     0.6100 ca         1 5BW      -0.021000
     20 CAA          1.4970    -7.5090     0.0640 ca         1 5BW      -0.161000
     21 CAB          1.7690    -8.7180     0.6810 ca         1 5BW      -0.046000
     22 CAC          1.1180    -9.0690     1.8480 ca         1 5BW      -0.206000
     23 CAD          0.1860    -8.2100     2.4100 ca         1 5BW       0.149000
     24 OAJ         -0.4490    -8.5520     3.5590 oh         1 5BW      -0.211000
     25 H1          -0.5490     0.0020    -0.9340 ha         1 5BW       0.124000
     26 H2           1.9370    -0.0020    -0.9310 ha         1 5BW       0.110000
     27 H3           3.1280    -0.0000     1.2550 ha         1 5BW       0.118000
     28 H4           1.8240    -0.0020     3.3430 h4         1 5BW       0.120000
     29 H5          -1.7670    -0.8570     3.1410 h1         1 5BW       0.098500
     30 H6          -3.1680     0.2330     3.0250 h1         1 5BW       0.098500
     31 H7          -4.2380    -2.0290     2.8460 hx         1 5BW       0.128000
     32 H8          -4.5430    -1.9880     0.1830 hc         1 5BW       0.086000
     33 H9          -4.6440    -0.3180     0.8550 hc         1 5BW       0.086000
     34 H10         -2.5840    -0.5150    -0.8520 h1         1 5BW       0.117000
     35 H11         -0.8490    -2.1200     0.5530 hx         1 5BW       0.105500
     36 H12         -2.1070    -2.9420    -0.3970 hx         1 5BW       0.105500
     37 H13         -2.8930    -3.8630     1.4240 DU         1 5BW       0.254000
     38 H14         -0.7200    -4.9380     2.6220 DU         1 5BW       0.227000
     39 H15          0.3630    -5.6970     0.1240 ha         1 5BW       0.127000
     40 H16          2.0120    -7.2420    -0.8500 ha         1 5BW       0.104000
     41 H17          2.4960    -9.3930     0.2460 ha         1 5BW       0.097000
     42 H18          1.3360   -10.0180     2.3240 ha         1 5BW       0.111000
     43 H19         -0.7920    -9.4260     3.4800 ho         1 5BW       0.196000
@<TRIPOS>BOND
     1     1     2 1   
     2     1     6 1   
     3     1    25 1   
     4     2     3 1   
     5     2    26 1   
     6     3     4 1   
     7     3    27 1   
     8     4     5 1   
     9     4    28 1   
    10     5     6 1   
    11     6     7 1   
    12     7     8 1   
    13     7    11 1   
    14     8     9 1   
    15     8    29 1   
    16     8    30 1   
    17     9    10 1   
    18     9    13 1   
    19     9    31 1   
    20    10    11 1   
    21    10    32 1   
    22    10    33 1   
    23    11    12 1   
    24    11    34 1   
    25    12    13 1   
    26    12    35 1   
    27    12    36 1   
    28    13    14 1   
    29    13    37 1   
    30    14    15 1   
    31    14    37 1   
    32    15    16 1   
    33    15    38 1   
    34    16    17 1   
    35    16    18 1   
    36    16    38 1   
    37    18    19 1   
    38    18    23 1   
    39    19    20 1   
    40    19    39 1   
    41    20    21 1   
    42    20    40 1   
    43    21    22 1   
    44    21    41 1   
    45    22    23 1   
    46    22    42 1   
    47    23    24 1   
    48    24    43 1   
@<TRIPOS>SUBSTRUCTURE
     1 5BW         1 TEMP              0 ****  ****    0 ROOT
