@<TRIPOS>MOLECULE
5BX
   34    36     1     0     0
SMALL
bcc


@<TRIPOS>ATOM
      1 C01          0.0000     0.0000     0.0000 c3         1 5BX       0.201100
      2 N02          1.4650     0.0000     0.0000 nu         1 5BX      -0.396200
      3 C03          2.1450     0.0000     1.1780 c2         1 5BX       0.708500
      4 N04          1.5610    -0.0050     2.3540 ne         1 5BX      -0.783100
      5 C05          2.4450    -0.0040     3.3510 c          1 5BX       0.724500
      6 O06          2.2090    -0.0090     4.5430 o          1 5BX      -0.563100
      7 C07          3.8080     0.0040     2.6870 c3         1 5BX       0.045100
      8 O08          3.4860     0.0000     1.2620 os         1 5BX      -0.409400
      9 C09          4.5870     1.2640     3.0660 c3         1 5BX       0.054500
     10 C10          3.8090     2.5010     2.6130 c3         1 5BX      -0.010100
     11 C11          5.9350     1.2440     2.3920 cc         1 5BX      -0.159400
     12 C12          6.1660     1.2100     1.0710 cd         1 5BX      -0.259100
     13 N13          7.5140     1.2000     0.8330 na         1 5BX       0.355600
     14 C14          8.2000     1.2280     2.0260 ca         1 5BX      -0.227200
     15 C15          9.5520     1.2330     2.3540 ca         1 5BX      -0.104000
     16 C16          9.9350     1.2650     3.6770 ca         1 5BX      -0.084000
     17 C17          8.9850     1.2920     4.6880 ca         1 5BX      -0.130000
     18 C18          7.6530     1.2880     4.3900 ca         1 5BX      -0.044000
     19 C19          7.2420     1.2630     3.0550 ca         1 5BX      -0.091800
     20 H011        -0.3610     0.9010     0.4800 h1         1 5BX       0.019700
     21 H013        -0.3610    -0.8670     0.5410 h1         1 5BX       0.019700
     22 H012        -0.3610    -0.0350    -1.0210 h1         1 5BX       0.019700
     23 H021         1.9650    -0.0230    -0.8670 hn         1 5BX       0.289800
     24 H071         4.3630    -0.8890     2.9510 h1         1 5BX       0.066700
     25 H091         4.7220     1.2960     4.1410 hc         1 5BX       0.055700
     26 H103         2.8770     2.5620     3.1610 hc         1 5BX       0.012033
     27 H101         4.3990     3.3890     2.8030 hc         1 5BX       0.012033
     28 H102         3.6000     2.4270     1.5520 hc         1 5BX       0.012033
     29 H121         5.4000     1.1940     0.3050 h4         1 5BX       0.146000
     30 H131         7.9370     1.1760    -0.0740 hn         1 5BX       0.112700
     31 H151        10.3010     1.2110     1.5720 ha         1 5BX       0.098000
     32 H161        10.9890     1.2680     3.9300 ha         1 5BX       0.100000
     33 H171         9.3030     1.3170     5.7240 ha         1 5BX       0.103000
     34 H181         6.9170     1.3100     5.1850 ha         1 5BX       0.104000
@<TRIPOS>BOND
     1     1     2 1   
     2     1    20 1   
     3     1    21 1   
     4     1    22 1   
     5     2     3 1   
     6     2    23 1   
     7     3     4 2   
     8     3     8 1   
     9     4     5 1   
    10     5     6 2   
    11     5     7 1   
    12     7     8 1   
    13     7     9 1   
    14     7    24 1   
    15     9    10 1   
    16     9    11 1   
    17     9    25 1   
    18    10    26 1   
    19    10    27 1   
    20    10    28 1   
    21    11    12 2   
    22    11    19 1   
    23    12    13 1   
    24    12    29 1   
    25    13    14 1   
    26    13    30 1   
    27    14    15 ar  
    28    14    19 ar  
    29    15    16 ar  
    30    15    31 1   
    31    16    17 ar  
    32    16    32 1   
    33    17    18 ar  
    34    17    33 1   
    35    18    19 ar  
    36    18    34 1   
@<TRIPOS>SUBSTRUCTURE
     1 5BX         1 TEMP              0 ****  ****    0 ROOT
