@<TRIPOS>MOLECULE
molecule
   34    36     1     0     0
SMALL
bcc


@<TRIPOS>ATOM
      1 C01          0.0000     0.0000     0.0000 c3         1 5BX       0.238100
      2 N02          1.4650     0.0000     0.0000 nu         1 5BX      -0.838200
      3 C03          2.1450     0.0000     1.1780 c2         1 5BX       0.871500
      4 N04          1.5610    -0.0050     2.3540 ne         1 5BX      -0.818100
      5 C05          2.4450    -0.0040     3.3510 c          1 5BX       0.712500
      6 O06          2.2090    -0.0090     4.5430 o          1 5BX      -0.524100
      7 C07          3.8080     0.0040     2.6870 c3         1 5BX      -0.007900
      8 O08          3.4860     0.0000     1.2620 os         1 5BX      -0.433400
      9 C09          4.5870     1.2640     3.0660 c3         1 5BX       0.019500
     10 C10          3.8090     2.5010     2.6130 c3         1 5BX      -0.095100
     11 C11          5.9350     1.2440     2.3920 cc         1 5BX      -0.164400
     12 C12          6.1660     1.2100     1.0710 cd         1 5BX      -0.083100
     13 N13          7.5140     1.2000     0.8330 na         1 5BX      -0.183400
     14 C14          8.2000     1.2280     2.0260 ca         1 5BX      -0.039200
     15 C15          9.5520     1.2330     2.3540 ca         1 5BX      -0.144000
     16 C16          9.9350     1.2650     3.6770 ca         1 5BX      -0.108000
     17 C17          8.9850     1.2920     4.6880 ca         1 5BX      -0.155000
     18 C18          7.6530     1.2880     4.3900 ca         1 5BX      -0.079000
     19 C19          7.2420     1.2630     3.0550 ca         1 5BX      -0.096800
     20 H011        -0.3610     0.9010     0.4800 h1         1 5BX       0.053700
     21 H013        -0.3610    -0.8670     0.5410 h1         1 5BX       0.053700
     22 H012        -0.3610    -0.0350    -1.0210 h1         1 5BX       0.053700
     23 H021         1.9650    -0.0230    -0.8670 hn         1 5BX       0.454800
     24 H071         4.3630    -0.8890     2.9510 h1         1 5BX       0.110700
     25 H091         4.7220     1.2960     4.1410 hc         1 5BX       0.088700
     26 H103         2.8770     2.5620     3.1610 hc         1 5BX       0.043367
     27 H101         4.3990     3.3890     2.8030 hc         1 5BX       0.043367
     28 H102         3.6000     2.4270     1.5520 hc         1 5BX       0.043367
     29 H121         5.4000     1.1940     0.3050 h4         1 5BX       0.171000
     30 H131         7.9370     1.1760    -0.0740 hn         1 5BX       0.295700
     31 H151        10.3010     1.2110     1.5720 ha         1 5BX       0.125000
     32 H161        10.9890     1.2680     3.9300 ha         1 5BX       0.130000
     33 H171         9.3030     1.3170     5.7240 ha         1 5BX       0.130000
     34 H181         6.9170     1.3100     5.1850 ha         1 5BX       0.132000
@<TRIPOS>BOND
     1     6     5 2   
     2    10     9 1   
     3     5     4 1   
     4     5     7 1   
     5     4     3 2   
     6     9     7 1   
     7     9    11 1   
     8     1     2 1   
     9     7     8 1   
    10     3     2 1   
    11     3     8 1   
    12    18    17 ar  
    13    18    19 ar  
    14    11    19 1   
    15    11    12 2   
    16    17    16 ar  
    17    19    14 ar  
    18    12    13 1   
    19    16    15 ar  
    20    14    13 1   
    21    14    15 ar  
    22     1    20 1   
    23     1    21 1   
    24     1    22 1   
    25     2    23 1   
    26     7    24 1   
    27     9    25 1   
    28    10    26 1   
    29    10    27 1   
    30    10    28 1   
    31    12    29 1   
    32    13    30 1   
    33    15    31 1   
    34    16    32 1   
    35    17    33 1   
    36    18    34 1   
@<TRIPOS>SUBSTRUCTURE
     1 5BX         1 TEMP              0 ****  ****    0 ROOT
