@<TRIPOS>MOLECULE
5BZ
   59    59     1     0     0
SMALL
bcc


@<TRIPOS>ATOM
      1 C7         -0.3950    1.3040    0.8210 c         1 5BZ      0.574100
      2 C10         1.5710   -0.0690    1.6730 c3        1 5BZ      0.060500
      3 C13         0.4970   -2.5680    3.4730 ca        1 5BZ     -0.131500
      4 C15        -1.1440   -4.2050    2.7830 ca        1 5BZ     -0.079000
      5 C17         0.3070   -3.1860    1.1380 ca        1 5BZ     -0.131500
      6 C21         5.1390    1.0590    2.0540 c3        1 5BZ      0.135500
      7 C22         6.0220    1.8760    2.9970 c3        1 5BZ     -0.119400
      8 C24         6.7990    4.0650    3.8430 c3        1 5BZ     -0.105100
      9 C8          5.5510   -0.4400    2.1400 c3        1 5BZ      0.321900
     10 O27         5.0380   -0.9670    3.3410 oh        1 5BZ     -0.659300
     11 O28         4.8350   -1.1240    1.1390 oh        1 5BZ     -0.659300
     12 C23         5.7240    3.3690    3.0250 c3        1 5BZ     -0.076700
     13 C25         5.6570    3.9690    1.6370 c3        1 5BZ     -0.105100
     14 N20         3.6690    1.2320    2.3840 n4        1 5BZ     -0.652800
     15 C18         2.7620    0.8110    1.2780 c         1 5BZ      0.544100
     16 O19         3.0030    1.1850    0.1380 o         1 5BZ     -0.396100
     17 C11         2.0550   -1.5310    1.8100 c3        1 5BZ     -0.044100
     18 C12         0.9200   -2.4270    2.1460 ca        1 5BZ     -0.189300
     19 C14        -0.5330   -3.4530    3.7890 ca        1 5BZ     -0.106500
     20 C16        -0.7210   -4.0710    1.4580 ca        1 5BZ     -0.106500
     21 N9          0.4630    0.0480    0.6690 n4        1 5BZ     -0.694800
     22 O8          0.0510    2.1390    1.5890 o         1 5BZ     -0.437100
     23 C2         -1.6610    1.3410    0.0260 c3        1 5BZ     -0.163400
     24 C3         -1.6460    0.5380   -1.2560 c3        1 5BZ     -0.100400
     25 C31        -2.9120    0.8240   -2.0580 c3        1 5BZ      0.020700
     26 C32        -2.9470    0.0490   -3.2600 c1        1 5BZ     -0.214100
     27 C33        -3.0210   -0.5760   -4.2780 c1        1 5BZ     -0.059500
     28 H1          1.1440    0.2720    2.6690 hx        1 5BZ      0.143700
     29 H2          0.9920   -2.0000    4.2760 ha        1 5BZ      0.135000
     30 H3         -1.9490   -4.9150    3.0370 ha        1 5BZ      0.174000
     31 H4          0.6690   -3.1290    0.1000 ha        1 5BZ      0.135000
     32 H5          5.2810    1.4030    0.9830 hx        1 5BZ      0.144700
     33 H6          5.9570    1.4570    4.0370 hc        1 5BZ      0.098700
     34 H7          7.0810    1.7300    2.6420 hc        1 5BZ      0.098700
     35 H8          6.5510    5.1490    3.9510 hc        1 5BZ      0.056367
     36 H9          6.8710    3.6130    4.8620 hc        1 5BZ      0.056367
     37 H10         7.7930    3.9800    3.3410 hc        1 5BZ      0.056367
     38 H11         5.5520   -1.7470    3.5940 ho        1 5BZ      0.463000
     39 H12         5.3410   -1.9010    0.8620 ho        1 5BZ      0.463000
     40 H13         4.7400    3.5450    3.5490 hc        1 5BZ      0.028700
     41 H14         6.5830    3.7340    1.0580 hc        1 5BZ      0.056367
     42 H15         4.7730    3.5870    1.0710 hc        1 5BZ      0.056367
     43 H16         5.5680    5.0820    1.7070 hc        1 5BZ      0.056367
     44 H17         3.4720    0.6860    3.2360 hn        1 5BZ      0.486300
     45 H18         2.5620   -1.8550    0.8600 hc        1 5BZ      0.107200
     46 H19         2.8400   -1.5560    2.6190 hc        1 5BZ      0.107200
     47 H20        -0.8550   -3.5700    4.8370 ha        1 5BZ      0.169000
     48 H21        -1.1890   -4.6810    0.6670 ha        1 5BZ      0.169000
     49 H22         0.8500    0.0350   -0.2860 hn        1 5BZ      0.488800
     50 H23        -2.4940    0.9880    0.7030 hc        1 5BZ      0.141700
     51 H24        -1.8650    2.4310   -0.2030 hc        1 5BZ      0.141700
     52 H25        -0.7550    0.8100   -1.8810 hc        1 5BZ      0.054700
     53 H26        -1.6040   -0.5620   -1.0380 hc        1 5BZ      0.054700
     54 H27        -3.8180    0.5890   -1.4300 hc        1 5BZ      0.078200
     55 H28        -2.9560    1.9200   -2.3160 hc        1 5BZ      0.078200
     56 H29        -3.0930   -1.1260   -5.1860 ha        1 5BZ      0.187500
     57 H30         6.6670   -0.5330    2.0440 h2        1 5BZ      0.112700
     58 H202        3.5090    2.2360    2.5750 hn        1 5BZ      0.486300
     59 H92        -0.1430   -0.7890    0.7760 hn        1 5BZ      0.488800
@<TRIPOS>BOND
     1    1   21 1   
     2    1   22 2   
     3    1   23 1   
     4    2   15 1   
     5    2   17 1   
     6    2   21 1   
     7    2   28 1   
     8    3   18 ar  
     9    3   19 ar  
    10    3   29 1   
    11    4   19 ar  
    12    4   20 ar  
    13    4   30 1   
    14    5   18 ar  
    15    5   20 ar  
    16    5   31 1   
    17    6    7 1   
    18    6    9 1   
    19    6   14 1   
    20    6   32 1   
    21    7   12 1   
    22    7   33 1   
    23    7   34 1   
    24    8   12 1   
    25    8   35 1   
    26    8   36 1   
    27    8   37 1   
    28    9   10 1   
    29    9   11 1   
    30    9   57 1   
    31   10   38 1   
    32   11   39 1   
    33   12   13 1   
    34   12   40 1   
    35   13   41 1   
    36   13   42 1   
    37   13   43 1   
    38   14   15 1   
    39   14   44 1   
    40   14   58 1   
    41   15   16 2   
    42   17   18 1   
    43   17   45 1   
    44   17   46 1   
    45   19   47 1   
    46   20   48 1   
    47   21   49 1   
    48   21   59 1   
    49   23   24 1   
    50   23   50 1   
    51   23   51 1   
    52   24   25 1   
    53   24   52 1   
    54   24   53 1   
    55   25   26 1   
    56   25   54 1   
    57   25   55 1   
    58   26   27 3   
    59   27   56 1   
@<TRIPOS>SUBSTRUCTURE
     1 5BZ         1 TEMP              0 ****  ****    0 ROOT
