@<TRIPOS>MOLECULE
molecule
   49    53     1     0     0
SMALL
bcc


@<TRIPOS>ATOM
      1 C4           0.0000     0.0000     0.0000 ca         1 5C0      -0.380900
      2 C5           1.5040     0.0000     0.0000 c3         1 5C0      -0.034100
      3 C6           2.0450     0.0000     1.4300 c3         1 5C0       0.231500
      4 N1          -2.0480     0.1480     1.1110 nb         1 5C0      -0.778000
      5 C7           1.7680    -1.3570     2.1060 c3         1 5C0      -0.094400
      6 C8           0.4430    -1.1580     2.8740 c3         1 5C0      -0.087400
      7 N2          -2.0270    -0.1210    -1.1770 nb         1 5C0      -0.806000
      8 C9          -0.0100     0.2740     2.4880 c3         1 5C0       0.186200
      9 C10         -0.7260     0.1390     1.1600 ca         1 5C0       0.482600
     10 C11         -2.6790     0.0170    -0.0400 ca         1 5C0       0.721900
     11 N3           1.2650     0.9850     2.2160 nh         1 5C0      -0.711400
     12 C13          0.7790     3.0050     3.3200 ce         1 5C0      -0.422200
     13 C14          1.1580     4.3080     3.7160 c          1 5C0       0.603900
     14 C15          0.2260     5.1410     4.5050 ca         1 5C0      -0.177600
     15 O1           2.2530     4.7450     3.4070 o          1 5C0      -0.561100
     16 C20          0.5980     6.4340     4.8990 ca         1 5C0       0.169100
     17 O            1.8160     6.9260     4.5580 oh         1 5C0      -0.481100
     18 C19         -0.2840     7.2060     5.6390 ca         1 5C0      -0.208000
     19 C18         -1.5230     6.7030     5.9840 ca         1 5C0      -0.084000
     20 C17         -1.8940     5.4260     5.5970 ca         1 5C0      -0.167000
     21 C16         -1.0320     4.6480     4.8550 ca         1 5C0      -0.071000
     22 C3          -0.6970    -0.1370    -1.2030 ca         1 5C0       0.736200
     23 N           -0.0170    -0.2860    -2.4010 nu         1 5C0      -0.873900
     24 C2          -0.7620    -0.4280    -3.6540 cx         1 5C0       0.185500
     25 C1          -0.0680    -1.1480    -4.8110 cx         1 5C0      -0.158900
     26 C           -0.2690     0.3690    -4.8640 cx         1 5C0      -0.158900
     27 H1           1.8600    -0.8830    -0.5160 hc         1 5C0       0.053200
     28 H2           1.8600     0.8830    -0.5160 hc         1 5C0       0.053200
     29 H3           3.1020     0.2360     1.4490 h1         1 5C0       0.070700
     30 H4           2.5670    -1.6050     2.7930 hc         1 5C0       0.056700
     31 H5           1.6570    -2.1330     1.3590 hc         1 5C0       0.056700
     32 H6          -0.2920    -1.8880     2.5550 hc         1 5C0       0.062700
     33 H7           0.6100    -1.2280     3.9420 hc         1 5C0       0.062700
     34 H8          -0.6110     0.7520     3.2520 h1         1 5C0       0.105700
     35 H9          -3.7620     0.0260    -0.0510 h5         1 5C0       0.060100
     36 H10          2.6050     2.6320     2.3260 h4         1 5C0       0.172000
     37 H11         -0.1950     2.6170     3.5930 ha         1 5C0       0.132000
     38 H12          2.2500     7.2520     5.3290 ho         1 5C0       0.417000
     39 H13         -0.0010     8.2060     5.9460 ha         1 5C0       0.136000
     40 H14         -2.2080     7.3100     6.5650 ha         1 5C0       0.130000
     41 H15         -2.8690     5.0410     5.8710 ha         1 5C0       0.132000
     42 H16         -1.3260     3.6490     4.5550 ha         1 5C0       0.140000
     43 H17          0.9840    -0.3110    -2.4080 hn         1 5C0       0.451800
     44 H18         -1.8350    -0.5700    -3.6110 h1         1 5C0       0.125700
     45 H19         -0.7150    -1.7290    -5.4560 hc         1 5C0       0.078200
     46 H20          0.9450    -1.4780    -4.6150 hc         1 5C0       0.078200
     47 H21          0.6200     0.9650    -4.7010 hc         1 5C0       0.078200
     48 H22         -1.0410     0.7140    -5.5420 hc         1 5C0       0.078200
     49 C12          1.6310     2.2440     2.5990 c2         1 5C0       0.210000
@<TRIPOS>BOND
     1    20    19 ar  
     2    20    21 ar  
     3    19    18 ar  
     4    21    14 ar  
     5    18    16 ar  
     6    25    26 1   
     7    25    24 1   
     8    14    16 ar  
     9    14    13 1   
    10    16    17 1   
    11    26    24 1   
    12    24    23 1   
    13    23    22 1   
    14     2     3 1   
    15     2     1 1   
    16    12    13 1   
    17    12    49 2   
    18    13    15 2   
    19     3    11 1   
    20     3     5 1   
    21    22     1 ar  
    22    22     7 ar  
    23     1     9 ar  
    24    49    11 1   
    25    11     8 1   
    26     5     6 1   
    27     7    10 ar  
    28     9     8 1   
    29     9     4 ar  
    30     8     6 1   
    31    10     4 ar  
    32     2    27 1   
    33     2    28 1   
    34     3    29 1   
    35     5    30 1   
    36     5    31 1   
    37     6    32 1   
    38     6    33 1   
    39     8    34 1   
    40    10    35 1   
    41    49    36 1   
    42    12    37 1   
    43    17    38 1   
    44    18    39 1   
    45    19    40 1   
    46    20    41 1   
    47    21    42 1   
    48    23    43 1   
    49    24    44 1   
    50    25    45 1   
    51    25    46 1   
    52    26    47 1   
    53    26    48 1   
@<TRIPOS>SUBSTRUCTURE
     1 5C0         1 TEMP              0 ****  ****    0 ROOT
