@<TRIPOS>MOLECULE
5C0
   49    55     1     0     0
SMALL
bcc


@<TRIPOS>ATOM
      1 C4           0.0000     0.0000     0.0000 c2         1 5C0      -0.277000
      2 C5           1.5040     0.0000     0.0000 c3         1 5C0      -0.035000
      3 C6           2.0450     0.0000     1.4300 c3         1 5C0      -0.065000
      4 N1          -2.0480     0.1480     1.1110 n2         1 5C0      -0.133000
      5 C7           1.7680    -1.3570     2.1060 c3         1 5C0      -0.126000
      6 C8           0.4430    -1.1580     2.8740 c3         1 5C0      -0.108000
      7 N2          -2.0270    -0.1210    -1.1770 n2         1 5C0      -0.169000
      8 C9          -0.0100     0.2740     2.4880 c3         1 5C0      -0.096000
      9 C10         -0.7260     0.1390     1.1600 c2         1 5C0       0.029000
     10 C11         -2.6790     0.0170    -0.0400 c2         1 5C0       0.019000
     11 N3           1.2650     0.9850     2.2160 nx         1 5C0       0.219000
     12 C13          0.7790     3.0050     3.3200 c2         1 5C0      -0.676000
     13 C14          1.1580     4.3080     3.7160 c3         1 5C0       0.470000
     14 C15          0.2260     5.1410     4.5050 ca         1 5C0      -0.192000
     15 O1           2.2530     4.7450     3.4070 o          1 5C0      -0.399000
     16 C20          0.5980     6.4340     4.8990 ca         1 5C0       0.150000
     17 O            1.8160     6.9260     4.5580 oh         1 5C0      -0.206000
     18 C19         -0.2840     7.2060     5.6390 ca         1 5C0      -0.210000
     19 C18         -1.5230     6.7030     5.9840 ca         1 5C0      -0.045000
     20 C17         -1.8940     5.4260     5.5970 ca         1 5C0      -0.162000
     21 C16         -1.0320     4.6480     4.8550 ca         1 5C0      -0.015000
     22 C3          -0.6970    -0.1370    -1.2030 c2         1 5C0       0.035000
     23 N           -0.0170    -0.2860    -2.4010 nu         1 5C0       0.120000
     24 C2          -0.7620    -0.4280    -3.6540 cx         1 5C0      -0.136000
     25 C1          -0.0680    -1.1480    -4.8110 cx         1 5C0      -0.170000
     26 C           -0.2690     0.3690    -4.8640 cx         1 5C0      -0.170000
     27 H1           1.8600    -0.8830    -0.5160 hc         1 5C0       0.072000
     28 H2           1.8600     0.8830    -0.5160 hc         1 5C0       0.072000
     29 H3           3.1020     0.2360     1.4490 hx         1 5C0       0.104000
     30 H4           2.5670    -1.6050     2.7930 hc         1 5C0       0.074000
     31 H5           1.6570    -2.1330     1.3590 hc         1 5C0       0.074000
     32 H6          -0.2920    -1.8880     2.5550 hc         1 5C0       0.075500
     33 H7           0.6100    -1.2280     3.9420 hc         1 5C0       0.075500
     34 H8          -0.6110     0.7520     3.2520 hx         1 5C0       0.149000
     35 H9          -3.7620     0.0260    -0.0510 h5         1 5C0       0.137000
     36 H10          1.6410     1.3790     3.2510 DU         1 5C0       0.222000
     37 H11          1.4420     3.2240     4.1470 DU         1 5C0       0.175000
     38 H12          2.2150     7.3280     5.3120 ho         1 5C0       0.192000
     39 H13         -0.0010     8.2060     5.9460 ha         1 5C0       0.111000
     40 H14         -2.2080     7.3100     6.5650 ha         1 5C0       0.097000
     41 H15         -2.8690     5.0410     5.8710 ha         1 5C0       0.105000
     42 H16         -1.3260     3.6490     4.5550 ha         1 5C0       0.131000
     43 H17          0.9840    -0.3110    -2.4080 hn         1 5C0       0.089000
     44 H18         -1.8350    -0.5700    -3.6110 h1         1 5C0       0.139000
     45 H19          0.9450    -1.4780    -4.6150 hc         1 5C0       0.088500
     46 H20         -0.7150    -1.7290    -5.4560 hc         1 5C0       0.088500
     47 H21         -1.0410     0.7140    -5.5420 hc         1 5C0       0.088500
     48 H22          0.6200     0.9650    -4.7010 hc         1 5C0       0.088500
     49 C12          1.6310     2.2440     2.5990 c2         1 5C0      -0.094000
@<TRIPOS>BOND
     1     1     2 1   
     2     1     9 1   
     3     1    22 1   
     4     2     3 1   
     5     2    27 1   
     6     2    28 1   
     7     3     5 1   
     8     3    11 1   
     9     3    29 1   
    10     4     9 1   
    11     4    10 1   
    12     5     6 1   
    13     5    30 1   
    14     5    31 1   
    15     6     8 1   
    16     6    32 1   
    17     6    33 1   
    18     7    10 1   
    19     7    22 1   
    20     8     9 1   
    21     8    11 1   
    22     8    34 1   
    23    10    35 1   
    24    11    36 1   
    25    11    49 1   
    26    12    13 1   
    27    12    37 1   
    28    12    49 1   
    29    13    14 1   
    30    13    15 1   
    31    13    37 1   
    32    14    16 1   
    33    14    21 1   
    34    16    17 1   
    35    16    18 1   
    36    17    38 1   
    37    18    19 1   
    38    18    39 1   
    39    19    20 1   
    40    19    40 1   
    41    20    21 1   
    42    20    41 1   
    43    21    42 1   
    44    22    23 1   
    45    23    24 1   
    46    23    43 1   
    47    24    25 1   
    48    24    26 1   
    49    24    44 1   
    50    25    26 1   
    51    25    45 1   
    52    25    46 1   
    53    26    47 1   
    54    26    48 1   
    55    36    49 1   
@<TRIPOS>SUBSTRUCTURE
     1 5C0         1 TEMP              0 ****  ****    0 ROOT
