@<TRIPOS>MOLECULE
5C1
   24    25     1     0     0
SMALL
bcc


@<TRIPOS>ATOM
      1 CAA         0.0770    0.0090   -0.0190 cc        1 5C1      0.290900
      2 OAB        -1.1990    0.1050   -3.4010 oh        1 5C1     -0.340300
      3 CAC         1.8410   -0.2280    1.2300 cd        1 5C1      0.228900
      4 CAD         0.7330   -0.0030    2.0970 cc        1 5C1      0.366900
      5 CAE        -0.9050    0.1420   -1.0670 c         1 5C1      0.525600
      6 CAF         0.6370    0.0450    3.5300 ca        1 5C1     -0.204500
      7 CAG        -0.2660    0.8610    4.2400 ca        1 5C1      0.072400
      8 CAH        -0.2790    0.8340    5.6410 ca        1 5C1     -0.129000
      9 CAI         0.5990    0.0060    6.3370 ca        1 5C1     -0.060000
     10 NAI         1.4110   -0.2140   -0.0700 nd        1 5C1     -0.590000
     11 CAJ         1.5060   -0.7970    5.6410 ca        1 5C1     -0.128000
     12 CAK         1.5280   -0.7760    4.2530 ca        1 5C1     -0.072000
     13 NAL        -0.2320   -0.0200   -2.4660 n4        1 5C1     -0.459300
     14 OAN        -0.3920    0.1410    1.3040 os        1 5C1     -0.276800
     15 OAO        -2.0970    0.3450   -1.0310 o         1 5C1     -0.328100
     16 CL         -1.3320    1.9210    3.4610 cl        1 5C1     -0.047400
     17 HOAB       -0.7940    0.0110   -4.2940 ho        1 5C1      0.469000
     18 HAC         2.8910   -0.3800    1.4990 h4        1 5C1      0.090100
     19 HAH        -0.9870    1.4740    6.1940 ha        1 5C1      0.172000
     20 HAI         0.5790   -0.0110    7.4390 ha        1 5C1      0.164000
     21 HAJ         2.2040   -1.4480    6.1930 ha        1 5C1      0.163000
     22 HAK         2.2410   -1.4140    3.7050 ha        1 5C1      0.147000
     23 HNAL        0.2150   -0.9530   -2.5110 hn        1 5C1      0.472800
     24 HAL2        0.4900    0.7150   -2.5710 hn        1 5C1      0.472800
@<TRIPOS>BOND
     1    1    5 1   
     2    1   10 2   
     3    1   14 1   
     4    2   13 1   
     5    2   17 1   
     6    3    4 2   
     7    3   10 1   
     8    3   18 1   
     9    4    6 1   
    10    4   14 1   
    11    5   13 1   
    12    5   15 2   
    13    6    7 ar  
    14    6   12 ar  
    15    7    8 ar  
    16    7   16 1   
    17    8    9 ar  
    18    8   19 1   
    19    9   11 ar  
    20    9   20 1   
    21   11   12 ar  
    22   11   21 1   
    23   12   22 1   
    24   13   23 1   
    25   13   24 1   
@<TRIPOS>SUBSTRUCTURE
     1 5C1         1 TEMP              0 ****  ****    0 ROOT
