@<TRIPOS>MOLECULE
5C2
   44    47     1     0     0
SMALL
bcc


@<TRIPOS>ATOM
      1 N3          0.0370   -0.0530    0.1060 n4        1 5C2     -0.667800
      2 C4          1.5240   -0.1290   -0.0500 c3        1 5C2      0.119500
      3 C5          2.2180    0.0530    1.2460 cc        1 5C2      0.132300
      4 C6          3.4700   -0.4270    1.6080 cd        1 5C2      0.229300
      5 C8          2.6130    0.7990    3.2700 cd        1 5C2      0.664900
      6 C10         3.6750    1.2330    5.4920 cc        1 5C2     -0.075000
      7 C15        -2.1600   -0.2380   -1.1200 ca        1 5C2     -0.393900
      8 C17        -4.2390   -0.3870   -2.2890 ca        1 5C2     -0.351200
      9 C22        -8.1120    1.6100   -0.7590 c3        1 5C2     -0.114100
     10 C24        -4.8990   -0.0040   -1.0310 ca        1 5C2      0.463800
     11 C26        -2.8930    0.1280    0.0550 ca        1 5C2      0.468200
     12 C23        -8.2970   -0.7960   -0.1240 c3        1 5C2     -0.114100
     13 N20        -6.2670    0.0300   -1.3040 na        1 5C2      0.035200
     14 N19        -6.5080   -0.2920   -2.5950 nc        1 5C2     -0.468100
     15 C18        -5.3450   -0.5460   -3.2190 cd        1 5C2      0.395800
     16 C16        -2.8650   -0.5000   -2.3150 ca        1 5C2      0.096000
     17 N25        -4.2110    0.2500    0.1340 nb        1 5C2     -0.639000
     18 C2         -0.7190   -0.3640   -1.1730 c         1 5C2      0.584700
     19 O1         -0.0250   -0.6940   -2.1290 o         1 5C2     -0.454100
     20 N14         1.6860    0.8220    2.3040 nc        1 5C2     -0.738000
     21 O7          3.7450    0.0380    2.8850 os        1 5C2     -0.350800
     22 C9          2.6430    1.3940    4.5660 cd        1 5C2     -0.254600
     23 S13         1.4340    2.3920    5.1720 ss        1 5C2      0.134200
     24 C12         2.2050    2.6280    6.6170 cd        1 5C2     -0.148100
     25 C11         3.4130    1.9550    6.6870 cc        1 5C2     -0.160000
     26 H1         -0.2170    0.8930    0.4190 hn        1 5C2      0.467300
     27 H2          1.8290    0.6780   -0.7810 hx        1 5C2      0.118200
     28 H3          1.7830   -1.1320   -0.4990 hx        1 5C2      0.118200
     29 H4          4.2470   -1.0380    1.1530 h4        1 5C2      0.089100
     30 H5          4.5720    0.6300    5.3220 ha        1 5C2      0.174000
     31 H6         -6.7980    0.5840    0.6360 h1        1 5C2      0.086700
     32 H7         -8.6770    1.4310   -1.7060 hc        1 5C2      0.061367
     33 H8         -8.8410    1.8550    0.0510 hc        1 5C2      0.061367
     34 H9         -7.4340    2.4850   -0.9050 hc        1 5C2      0.061367
     35 H10        -2.3820    0.3390    1.0140 h4        1 5C2      0.018100
     36 H11        -7.7570   -1.7160    0.2050 hc        1 5C2      0.061367
     37 H12        -9.0220   -0.5040    0.6740 hc        1 5C2      0.061367
     38 H13        -8.8660   -1.0260   -1.0570 hc        1 5C2      0.061367
     39 H14        -5.2950   -0.8290   -4.2750 h4        1 5C2      0.081800
     40 H15        -2.3230   -0.7850   -3.2350 ha        1 5C2      0.179000
     41 H16         1.7940    3.2500    7.4150 h4        1 5C2      0.191000
     42 H17         4.0910    1.9670    7.5450 ha        1 5C2      0.176000
     43 C21        -7.3320    0.3670   -0.3380 c3        1 5C2      0.072000
     44 H32        -0.2590   -0.7130    0.8350 hn        1 5C2      0.467300
@<TRIPOS>BOND
     1    1    2 1
     2    1   18 1
     3    1   26 1
     4    1   44 1
     5    2    3 1
     6    2   27 1
     7    2   28 1
     8    3    4 2
     9    3   20 1
    10    4   21 1
    11    4   29 1
    12    5   20 2
    13    5   21 1
    14    5   22 1
    15    6   22 2
    16    6   25 1
    17    6   30 1
    18    7   11 ar
    19    7   16 ar
    20    7   18 1
    21    8   10 ar
    22    8   15 1
    23    8   16 ar
    24    9   32 1
    25    9   33 1
    26    9   34 1
    27    9   43 1
    28   10   13 1
    29   10   17 ar
    30   11   17 ar
    31   11   35 1
    32   12   36 1
    33   12   37 1
    34   12   38 1
    35   12   43 1
    36   13   14 1
    37   13   43 1
    38   14   15 2
    39   15   39 1
    40   16   40 1
    41   18   19 2
    42   22   23 1
    43   23   24 1
    44   24   25 2
    45   24   41 1
    46   25   42 1
    47   31   43 1
@<TRIPOS>SUBSTRUCTURE
     1 5C2         1 TEMP              0 ****  ****    0 ROOT
