@<TRIPOS>MOLECULE
5C3
   41    42     1     0     0
SMALL
bcc


@<TRIPOS>ATOM
      1 C01          0.0000     0.0000     0.0000 ca         1 5C3      -0.133000
      2 C02          1.3820     0.0000     0.0000 ca         1 5C3       0.011500
      3 C03          2.0740     0.0000     1.1980 ca         1 5C3      -0.171500
      4 C04          1.3820     0.0010     2.3950 ca         1 5C3       0.011500
      5 C05         -0.0010     0.0020     2.3940 ca         1 5C3      -0.133000
      6 C06         -0.6920     0.0000     1.1970 ca         1 5C3      -0.034000
      7 O08          3.4510     1.9230     3.2080 o          1 5C3      -0.589100
      8 N09          7.9710     7.5170     3.4370 nz         1 5C3       0.079400
      9 C10          6.5030     7.4600     3.4370 c3         1 5C3      -0.050200
     10 S11          3.8350    -0.0010     1.1990 sy         1 5C3       1.041900
     11 NP2          4.3270     1.5800     1.1980 ns         1 5C3      -0.307300
     12 O13          4.2360    -0.5460     2.4480 o          1 5C3      -0.560800
     13 O14          4.2360    -0.5470    -0.0510 o          1 5C3      -0.560800
     14 C15          6.0490     5.9990     3.4370 c3         1 5C3      -0.070700
     15 C16          4.5250     5.9390     3.5620 c3         1 5C3      -0.021900
     16 C17          4.0710     4.4780     3.5630 c3         1 5C3      -0.007400
     17 C18          4.5020     3.8090     2.2550 c3         1 5C3      -0.134700
     18 C19          6.0260     3.8700     2.1300 c3         1 5C3      -0.007400
     19 C11          4.0550     2.3710     2.2560 c          1 5C3       0.648100
     20 C20          6.4800     5.3310     2.1300 c3         1 5C3      -0.021900
     21 H01         -0.5410    -0.0010    -0.9380 ha         1 5C3       0.113500
     22 H02          1.9240    -0.0000    -0.9380 ha         1 5C3       0.129500
     23 H06         -1.7750     0.0010     1.1970 ha         1 5C3       0.107000
     24 H04          1.9230     0.0010     3.3330 ha         1 5C3       0.129500
     25 H05         -0.5430     0.0020     3.3320 ha         1 5C3       0.113500
     26 H091         8.3330     6.7900     4.0230 hn         1 5C3       0.225467
     27 H092         8.3100     7.3930     2.5040 hn         1 5C3       0.225467
     28 H101         6.1220     7.9560     2.5520 hx         1 5C3       0.086200
     29 H102         6.1220     7.9570     4.3210 hx         1 5C3       0.086200
     30 H15          6.4990     5.4770     4.2730 hc         1 5C3       0.050700
     31 HP2          4.7920     1.9590     0.3970 hn         1 5C3       0.228500
     32 H161         4.2210     6.4110     4.4880 hc         1 5C3       0.019700
     33 H162         4.0750     6.4550     2.7230 hc         1 5C3       0.019700
     34 H201         6.0260     5.8490     1.2950 hc         1 5C3       0.019700
     35 H202         7.5590     5.3720     2.0440 hc         1 5C3       0.019700
     36 H171         4.5250     3.9600     4.3990 hc         1 5C3       0.040450
     37 H172         2.9920     4.4360     3.6490 hc         1 5C3       0.040450
     38 H18          4.0520     4.3310     1.4190 hc         1 5C3       0.046700
     39 H191         6.4760     3.3530     2.9690 hc         1 5C3       0.040450
     40 H192         6.3290     3.3990     1.2030 hc         1 5C3       0.040450
     41 H093         8.2700     8.4060     3.7860 hn         1 5C3       0.225467
@<TRIPOS>BOND
     1     1     2 ar  
     2     1     6 ar  
     3     1    21 1   
     4     2     3 ar  
     5     2    22 1   
     6     3     4 ar  
     7     3    10 1   
     8     4     5 ar  
     9     4    24 1   
    10     5     6 ar  
    11     5    25 1   
    12     6    23 1   
    13     7    19 2   
    14     8     9 1   
    15     8    26 1   
    16     8    27 1   
    17     8    41 1   
    18     9    14 1   
    19     9    28 1   
    20     9    29 1   
    21    10    11 1   
    22    10    12 2   
    23    10    13 2   
    24    11    19 1   
    25    11    31 1   
    26    14    15 1   
    27    14    20 1   
    28    14    30 1   
    29    15    16 1   
    30    15    32 1   
    31    15    33 1   
    32    16    17 1   
    33    16    36 1   
    34    16    37 1   
    35    17    18 1   
    36    17    19 1   
    37    17    38 1   
    38    18    20 1   
    39    18    39 1   
    40    18    40 1   
    41    20    34 1   
    42    20    35 1   
@<TRIPOS>SUBSTRUCTURE
     1 5C3         1 TEMP              0 ****  ****    0 ROOT
