@<TRIPOS>MOLECULE
molecule
   53    56     1     0     0
SMALL
bcc


@<TRIPOS>ATOM
      1 O01          0.0000     0.0000     0.0000 oh         1 5C4      -0.523100
      2 C02          1.3590     0.0000     0.0000 ca         1 5C4       0.104100
      3 C03          2.0520     0.0000     1.2030 ca         1 5C4      -0.153750
      4 C04          3.4310     0.0000     1.2050 ca         1 5C4      -0.101500
      5 C05          4.1300    -0.0010    -0.0030 ca         1 5C4      -0.052800
      6 C06          5.6090    -0.0020    -0.0050 ce         1 5C4      -0.029400
      7 C07          6.3500     1.1600     0.5360 ca         1 5C4      -0.052800
      8 C08          7.1470     1.0130     1.6730 ca         1 5C4      -0.101500
      9 C09          7.8360     2.0970     2.1720 ca         1 5C4      -0.153750
     10 C10          7.7380     3.3330     1.5480 ca         1 5C4       0.104100
     11 O11          8.4180     4.3990     2.0440 oh         1 5C4      -0.523100
     12 C12          6.9460     3.4830     0.4170 ca         1 5C4      -0.153750
     13 C13          6.2580     2.4020    -0.0930 ca         1 5C4      -0.101500
     14 C14          6.2860    -1.0670    -0.5000 cf         1 5C4      -0.043400
     15 C15          7.7560    -1.0670    -0.5010 ca         1 5C4      -0.026800
     16 C16          8.4590    -0.1370    -1.2760 ca         1 5C4      -0.140000
     17 C17          9.8380    -0.1420    -1.2740 ca         1 5C4      -0.098000
     18 C18         10.5320    -1.0620    -0.5110 ca         1 5C4      -0.172000
     19 C19          9.8450    -1.9910     0.2630 ca         1 5C4       0.171600
     20 N20         10.5510    -2.9180     1.0340 nu         1 5C4      -0.686000
     21 C21         11.7860    -3.3980     0.5900 ca         1 5C4       0.177600
     22 C22         12.7170    -3.8730     1.5050 ca         1 5C4      -0.183500
     23 C23         13.9370    -4.3470     1.0620 ca         1 5C4      -0.095500
     24 C24         14.2310    -4.3490    -0.2890 ca         1 5C4      -0.167000
     25 C25         13.3060    -3.8770    -1.2020 ca         1 5C4      -0.095500
     26 C26         12.0830    -3.4060    -0.7670 ca         1 5C4      -0.183500
     27 C27          8.4590    -1.9940     0.2750 ca         1 5C4      -0.173000
     28 C28          5.5310    -2.2490    -1.0500 c3         1 5C4      -0.050900
     29 C29          3.4280    -0.0020    -1.2100 ca         1 5C4      -0.101500
     30 C30          2.0500    -0.0070    -1.2050 ca         1 5C4      -0.153750
     31 H1          -0.3140     0.8890     0.0010 ho         1 5C4       0.418500
     32 H2           1.5100     0.0010     2.1400 ha         1 5C4       0.140500
     33 H3           3.9710     0.0000     2.1440 ha         1 5C4       0.137500
     34 H5           7.2240     0.0490     2.1610 ha         1 5C4       0.137500
     35 H6           8.4550     1.9840     3.0540 ha         1 5C4       0.140500
     36 H7           7.8800     4.8500     2.6730 ho         1 5C4       0.418500
     37 H8           6.8740     4.4480    -0.0700 ha         1 5C4       0.140500
     38 H9           5.6400     2.5190    -0.9750 ha         1 5C4       0.137500
     39 H11          7.9200     0.5860    -1.8760 ha         1 5C4       0.136000
     40 H12         10.3800     0.5790    -1.8750 ha         1 5C4       0.134000
     41 H13         11.6150    -1.0590    -0.5140 ha         1 5C4       0.146000
     42 H14         10.1620    -3.2550     1.8920 hn         1 5C4       0.447800
     43 H15         12.4880    -3.8720     2.5630 ha         1 5C4       0.137500
     44 H16         14.6640    -4.7180     1.7750 ha         1 5C4       0.130000
     45 H17         15.1890    -4.7200    -0.6330 ha         1 5C4       0.129000
     46 H18         13.5390    -3.8820    -2.2600 ha         1 5C4       0.130000
     47 H19         11.3580    -3.0360    -1.4820 ha         1 5C4       0.137500
     48 H20          7.9220    -2.7160     0.8770 ha         1 5C4       0.134000
     49 H21          4.7150    -2.4990    -0.3830 hc         1 5C4       0.049033
     50 H22          6.2000    -3.0970    -1.1360 hc         1 5C4       0.049033
     51 H23          5.1340    -2.0020    -2.0280 hc         1 5C4       0.049033
     52 H24          3.9670    -0.0050    -2.1500 ha         1 5C4       0.137500
     53 H25          1.5050    -0.0070    -2.1410 ha         1 5C4       0.140500
@<TRIPOS>BOND
     1     1     2 1
     2     3     2 ar
     3     3     4 ar
     4     2    30 ar
     5     4     5 ar
     6    30    29 ar
     7     5    29 ar
     8     5     6 1
     9     6     7 1
    10     6    14 2
    11     7    13 ar
    12     7     8 ar
    13    13    12 ar
    14     8     9 ar
    15    12    10 ar
    16     9    10 ar
    17    10    11 1
    18    28    14 1
    19    14    15 1
    20    15    27 ar
    21    15    16 ar
    22    27    19 ar
    23    16    17 ar
    24    19    20 1
    25    19    18 ar
    26    17    18 ar
    27    20    21 1
    28    26    21 ar
    29    26    25 ar
    30    21    22 ar
    31    25    24 ar
    32    22    23 ar
    33    24    23 ar
    34     1    31 1
    35     3    32 1
    36     4    33 1
    37     8    34 1
    38     9    35 1
    39    11    36 1
    40    12    37 1
    41    13    38 1
    42    16    39 1
    43    17    40 1
    44    18    41 1
    45    20    42 1
    46    22    43 1
    47    23    44 1
    48    24    45 1
    49    25    46 1
    50    26    47 1
    51    27    48 1
    52    28    49 1
    53    28    50 1
    54    28    51 1
    55    29    52 1
    56    30    53 1
@<TRIPOS>SUBSTRUCTURE
     1 5C4         1 TEMP              0 ****  ****    0 ROOT
