@<TRIPOS>MOLECULE
5C5
   55    58     1     0     0
SMALL
bcc


@<TRIPOS>ATOM
      1 O2           0.0000     0.0000     0.0000 o          1 5C5      -0.816800
      2 C            1.2090     0.0000     0.0000 c          1 5C5       0.953600
      3 O            1.8790     0.0000     1.1620 o          1 5C5      -0.816800
      4 C1           1.9620    -0.0050    -1.3050 c3         1 5C5      -0.171500
      5 N            1.0800    -0.4840    -2.3780 nz         1 5C5       0.075400
      6 C2           2.4340     1.4140    -1.6280 c3         1 5C5       0.064700
      7 S            3.3410     1.4070    -3.1980 ss         1 5C5      -0.465200
      8 C3           3.7140     3.1620    -3.4630 c3         1 5C5       0.292000
      9 C18          4.5830     3.2060    -4.6930 ca         1 5C5      -0.128300
     10 C24          4.6310     2.1170    -5.5420 ca         1 5C5      -0.055500
     11 C23          5.4280     2.1550    -6.6710 ca         1 5C5      -0.170500
     12 C21          6.1780     3.2870    -6.9520 ca         1 5C5       0.158100
     13 O1           6.9620     3.3260    -8.0610 os         1 5C5      -0.305900
     14 C22          7.7070     4.5240    -8.2860 c3         1 5C5       0.243700
     15 C20          6.1280     4.3790    -6.0970 ca         1 5C5      -0.170500
     16 C19          5.3270     4.3380    -4.9720 ca         1 5C5      -0.055500
     17 C17          2.4370     3.8050    -3.8350 ca         1 5C5      -0.083800
     18 C16          1.7690     3.1120    -4.8670 ca         1 5C5      -0.105500
     19 C15          0.5270     3.4950    -5.3070 ca         1 5C5      -0.105000
     20 C14         -0.0780     4.5900    -4.7170 ca         1 5C5      -0.086500
     21 C13          0.5970     5.2780    -3.7420 ca         1 5C5      -0.117000
     22 C12          1.8830     4.8920    -3.3050 ca         1 5C5      -0.054800
     23 C11          2.4030     5.9040    -2.3060 c3         1 5C5       0.029900
     24 C10          3.0870     5.3180    -1.1110 c3         1 5C5       0.029900
     25 C9           4.3270     4.5080    -1.4200 ca         1 5C5      -0.054800
     26 C4           4.5740     3.5760    -2.3330 ca         1 5C5      -0.083800
     27 C8           5.3600     4.8630    -0.5200 ca         1 5C5      -0.117000
     28 C7           6.5770     4.2330    -0.5270 ca         1 5C5      -0.086500
     29 C6           6.7990     3.2080    -1.4280 ca         1 5C5      -0.105000
     30 C5           5.8040     2.8850    -2.3170 ca         1 5C5      -0.105500
     31 H2           2.8200    -0.6610    -1.2240 hx         1 5C5       0.095700
     32 H3           0.3630     0.1930    -2.5480 hn         1 5C5       0.216800
     33 H4           0.6620    -1.3510    -2.1040 hn         1 5C5       0.216800
     34 H6           1.5760     2.0700    -1.7100 h1         1 5C5       0.079700
     35 H7           3.0840     1.7660    -0.8370 h1         1 5C5       0.079700
     36 H8           4.0450     1.2330    -5.3230 ha         1 5C5       0.122500
     37 H9           5.4650     1.3010    -7.3370 ha         1 5C5       0.121000
     38 H10          8.2850     4.4240    -9.1970 h1         1 5C5      -0.000967
     39 H11          7.0260     5.3610    -8.3810 h1         1 5C5      -0.000967
     40 H12          8.3760     4.6960    -7.4510 h1         1 5C5      -0.000967
     41 H13          6.7110     5.2650    -6.3150 ha         1 5C5       0.121000
     42 H14          5.2870     5.1900    -4.3050 ha         1 5C5       0.122500
     43 H15          2.2490     2.2560    -5.3240 ha         1 5C5       0.129500
     44 H16          0.0170     2.9320    -6.0800 ha         1 5C5       0.107000
     45 H17         -1.0580     4.9180    -5.0420 ha         1 5C5       0.106500
     46 H18          0.1210     6.1360    -3.2810 ha         1 5C5       0.110500
     47 H19          3.1190     6.5350    -2.8180 hc         1 5C5       0.029200
     48 H20          2.3810     4.6630    -0.6150 hc         1 5C5       0.029200
     49 H21          5.1880     5.6660     0.1870 ha         1 5C5       0.110500
     50 H22          7.3430     4.5120     0.1870 ha         1 5C5       0.106500
     51 H23          7.7520     2.6940    -1.4550 ha         1 5C5       0.107000
     52 H24          5.9700     2.0830    -3.0270 ha         1 5C5       0.129500
     53 H5           1.5570     6.4810    -1.9510 hc         1 5C5       0.029200
     54 H25          3.3810     6.1370    -0.4650 hc         1 5C5       0.029200
     55 HN3          1.6140    -0.6180    -3.2140 hn         1 5C5       0.216800
@<TRIPOS>BOND
     1     1     2 1   
     2     2     3 1   
     3     2     4 1   
     4     4     5 1   
     5     4     6 1   
     6     4    31 1   
     7     5    32 1   
     8     5    33 1   
     9     5    55 1   
    10     6     7 1   
    11     6    34 1   
    12     6    35 1   
    13     7     8 1   
    14     8     9 1   
    15     8    17 1   
    16     8    26 1   
    17     9    10 ar  
    18     9    16 ar  
    19    10    11 ar  
    20    10    36 1   
    21    11    12 ar  
    22    11    37 1   
    23    12    13 1   
    24    12    15 ar  
    25    13    14 1   
    26    14    38 1   
    27    14    39 1   
    28    14    40 1   
    29    15    16 ar  
    30    15    41 1   
    31    16    42 1   
    32    17    18 ar  
    33    17    22 ar  
    34    18    19 ar  
    35    18    43 1   
    36    19    20 ar  
    37    19    44 1   
    38    20    21 ar  
    39    20    45 1   
    40    21    22 ar  
    41    21    46 1   
    42    22    23 1   
    43    23    24 1   
    44    23    47 1   
    45    23    53 1   
    46    24    25 1   
    47    24    48 1   
    48    24    54 1   
    49    25    26 ar  
    50    25    27 ar  
    51    26    30 ar  
    52    27    28 ar  
    53    27    49 1   
    54    28    29 ar  
    55    28    50 1   
    56    29    30 ar  
    57    29    51 1   
    58    30    52 1   
@<TRIPOS>SUBSTRUCTURE
     1 5C5         1 TEMP              0 ****  ****    0 ROOT
