@<TRIPOS>MOLECULE
molecule
   55    58     1     0     0
SMALL
bcc


@<TRIPOS>ATOM
      1 O2           0.0000     0.0000     0.0000 o          1 5C5      -0.773300
      2 C            1.2090     0.0000     0.0000 c          1 5C5       0.868600
      3 O            1.8790     0.0000     1.1620 o          1 5C5      -0.773300
      4 C1           1.9620    -0.0050    -1.3050 c3         1 5C5       0.002500
      5 N            1.0800    -0.4840    -2.3780 nz         1 5C5      -0.790600
      6 C2           2.4340     1.4140    -1.6280 c3         1 5C5       0.010700
      7 S            3.3410     1.4070    -3.1980 ss         1 5C5      -0.440200
      8 C3           3.7140     3.1620    -3.4630 c3         1 5C5       0.239000
      9 C18          4.5830     3.2060    -4.6930 ca         1 5C5      -0.114300
     10 C24          4.6310     2.1170    -5.5420 ca         1 5C5      -0.077000
     11 C23          5.4280     2.1550    -6.6710 ca         1 5C5      -0.187000
     12 C21          6.1780     3.2870    -6.9520 ca         1 5C5       0.147100
     13 O1           6.9620     3.3260    -8.0610 os         1 5C5      -0.327900
     14 C22          7.7070     4.5240    -8.2860 c3         1 5C5       0.127700
     15 C20          6.1280     4.3790    -6.0970 ca         1 5C5      -0.187000
     16 C19          5.3270     4.3380    -4.9720 ca         1 5C5      -0.077000
     17 C17          2.4370     3.8050    -3.8350 ca         1 5C5      -0.073300
     18 C16          1.7690     3.1120    -4.8670 ca         1 5C5      -0.112500
     19 C15          0.5270     3.4950    -5.3070 ca         1 5C5      -0.136000
     20 C14         -0.0780     4.5900    -4.7170 ca         1 5C5      -0.115500
     21 C13          0.5970     5.2780    -3.7420 ca         1 5C5      -0.141000
     22 C12          1.8830     4.8920    -3.3050 ca         1 5C5      -0.053800
     23 C11          2.4030     5.9040    -2.3060 c3         1 5C5      -0.033100
     24 C10          3.0870     5.3180    -1.1110 c3         1 5C5      -0.033100
     25 C9           4.3270     4.5080    -1.4200 ca         1 5C5      -0.053800
     26 C4           4.5740     3.5760    -2.3330 ca         1 5C5      -0.073300
     27 C8           5.3600     4.8630    -0.5200 ca         1 5C5      -0.141000
     28 C7           6.5770     4.2330    -0.5270 ca         1 5C5      -0.115500
     29 C6           6.7990     3.2080    -1.4280 ca         1 5C5      -0.136000
     30 C5           5.8040     2.8850    -2.3170 ca         1 5C5      -0.112500
     31 H2           2.8200    -0.6610    -1.2240 hx         1 5C5       0.113700
     32 H3           0.3630     0.1930    -2.5480 hn         1 5C5       0.443133
     33 H4           0.6620    -1.3510    -2.1040 hn         1 5C5       0.443133
     34 H6           1.5760     2.0700    -1.7100 h1         1 5C5       0.104200
     35 H7           3.0840     1.7660    -0.8370 h1         1 5C5       0.104200
     36 H8           4.0450     1.2330    -5.3230 ha         1 5C5       0.143500
     37 H9           5.4650     1.3010    -7.3370 ha         1 5C5       0.142500
     38 H10          8.2850     4.4240    -9.1970 h1         1 5C5       0.043367
     39 H11          7.0260     5.3610    -8.3810 h1         1 5C5       0.043367
     40 H12          8.3760     4.6960    -7.4510 h1         1 5C5       0.043367
     41 H13          6.7110     5.2650    -6.3150 ha         1 5C5       0.142500
     42 H14          5.2870     5.1900    -4.3050 ha         1 5C5       0.143500
     43 H15          2.2490     2.2560    -5.3240 ha         1 5C5       0.145000
     44 H16          0.0170     2.9320    -6.0800 ha         1 5C5       0.134000
     45 H17         -1.0580     4.9180    -5.0420 ha         1 5C5       0.134000
     46 H18          0.1210     6.1360    -3.2810 ha         1 5C5       0.133000
     47 H19          3.1190     6.5350    -2.8180 hc         1 5C5       0.058950
     48 H20          2.3810     4.6630    -0.6150 hc         1 5C5       0.058950
     49 H21          5.1880     5.6660     0.1870 ha         1 5C5       0.133000
     50 H22          7.3430     4.5120     0.1870 ha         1 5C5       0.134000
     51 H23          7.7520     2.6940    -1.4550 ha         1 5C5       0.134000
     52 H24          5.9700     2.0830    -3.0270 ha         1 5C5       0.145000
     53 H5           1.5570     6.4810    -1.9510 hc         1 5C5       0.058950
     54 H25          3.3810     6.1370    -0.4650 hc         1 5C5       0.058950
     55 HN3          1.6140    -0.6180    -3.2140 hn         1 5C5       0.443133
@<TRIPOS>BOND
     1    20    21 ar  
     2    20    19 ar  
     3    21    22 ar  
     4    19    18 ar  
     5    22    23 1   
     6    22    17 ar  
     7    23    24 1   
     8    24    25 1   
     9    18    17 ar  
    10    17     8 1   
    11    27    25 ar  
    12    27    28 ar  
    13    25    26 ar  
    14    28    29 ar  
    15    26     8 1   
    16    26    30 ar  
    17     8     9 1   
    18     8     7 1   
    19    29    30 ar  
    20    10     9 ar  
    21    10    11 ar  
    22     9    16 ar  
    23    11    12 ar  
    24     7     6 1   
    25     1     2 1   
    26     6     4 1   
    27    16    15 ar  
    28    12    15 ar  
    29    12    13 1   
    30     2     4 1   
    31     2     3 1   
    32     4     5 1   
    33    13    14 1   
    34     4    31 1   
    35     5    32 1   
    36     5    33 1   
    37     6    34 1   
    38     6    35 1   
    39    10    36 1   
    40    11    37 1   
    41    14    38 1   
    42    14    39 1   
    43    14    40 1   
    44    15    41 1   
    45    16    42 1   
    46    18    43 1   
    47    19    44 1   
    48    20    45 1   
    49    21    46 1   
    50    23    47 1   
    51    24    48 1   
    52    27    49 1   
    53    28    50 1   
    54    29    51 1   
    55    30    52 1   
    56    23    53 1   
    57    24    54 1   
    58    55     5 1   
@<TRIPOS>SUBSTRUCTURE
     1 5C5         1 TEMP              0 ****  ****    0 ROOT
