@<TRIPOS>MOLECULE
molecule
   62    66     1     0     0
SMALL
bcc


@<TRIPOS>ATOM
      1 C01          0.0000     0.0000     0.0000 c3         1 5C6      -0.088100
      2 C02          1.5300     0.0000     0.0000 c3         1 5C6      -0.047200
      3 C03          2.0330     0.0000     1.4210 ce         1 5C6      -0.043400
      4 C04          2.4020     1.1640     2.0090 cf         1 5C6      -0.022400
      5 C05          2.8550     1.1700     3.4170 ca         1 5C6      -0.053800
      6 C06          1.9700     0.8220     4.4390 ca         1 5C6      -0.101250
      7 C07          2.3980     0.8230     5.7500 ca         1 5C6      -0.154000
      8 C08          3.7080     1.1710     6.0540 ca         1 5C6       0.104600
      9 O09          4.1250     1.1700     7.3470 oh         1 5C6      -0.522600
     10 C10          4.5920     1.5170     5.0410 ca         1 5C6      -0.154000
     11 C11          4.1720     1.5180     3.7280 ca         1 5C6      -0.101250
     12 C12          2.3520     2.4290     1.2430 ca         1 5C6      -0.053800
     13 C13          3.2250     2.6340     0.1730 ca         1 5C6      -0.101250
     14 C14          3.1750     3.8130    -0.5390 ca         1 5C6      -0.154000
     15 C15          2.2590     4.7970    -0.1920 ca         1 5C6       0.104600
     16 O16          2.2130     5.9580    -0.8960 oh         1 5C6      -0.522600
     17 C17          1.3880     4.5970     0.8720 ca         1 5C6      -0.154000
     18 C18          1.4290     3.4180     1.5850 ca         1 5C6      -0.101250
     19 C19          2.1220    -1.2630     2.1690 ca         1 5C6      -0.033800
     20 C20          3.3690    -1.7520     2.5750 ca         1 5C6      -0.129000
     21 C21          3.4490    -2.9360     3.2770 ca         1 5C6      -0.103000
     22 C22          2.3010    -3.6450     3.5820 ca         1 5C6      -0.163000
     23 C23          1.0570    -3.1680     3.1840 ca         1 5C6       0.157600
     24 N24         -0.1000    -3.8890     3.4940 nu         1 5C6      -0.678000
     25 C25         -1.1030    -4.0410     2.5400 ca         1 5C6       0.199600
     26 C26         -0.8920    -3.6410     1.2380 ca         1 5C6      -0.220000
     27 C27         -1.8890    -3.7870     0.2780 ca         1 5C6      -0.081000
     28 C28         -3.0980    -4.3290     0.5960 ca         1 5C6      -0.170000
     29 C29         -3.3530    -4.7500     1.9120 ca         1 5C6       0.000000
     30 C30         -4.5920    -5.3110     2.2690 ca         1 5C6      -0.121000
     31 C31         -4.8060    -5.7090     3.5530 ca         1 5C6      -0.119000
     32 C32         -3.8150    -5.5670     4.5230 ca         1 5C6      -0.134000
     33 C33         -2.6040    -5.0270     4.2130 ca         1 5C6      -0.112000
     34 C34         -2.3450    -4.6100     2.8980 ca         1 5C6      -0.077000
     35 C35          0.9620    -1.9760     2.4830 ca         1 5C6      -0.155000
     36 H1          -0.3610    -0.9680    -0.3270 hc         1 5C6       0.037700
     37 H2          -0.3610     0.7670    -0.6740 hc         1 5C6       0.037700
     38 H3          -0.3610     0.2010     1.0010 hc         1 5C6       0.037700
     39 H4           1.8910    -0.8840    -0.5110 hc         1 5C6       0.055200
     40 H5           1.8910     0.8840    -0.5110 hc         1 5C6       0.055200
     41 H8           0.9480     0.5510     4.2030 ha         1 5C6       0.138750
     42 H9           1.7110     0.5530     6.5430 ha         1 5C6       0.140750
     43 H10          4.0830     2.0470     7.6910 ho         1 5C6       0.419000
     44 H11          5.6130     1.7870     5.2820 ha         1 5C6       0.140750
     45 H12          4.8620     1.7880     2.9380 ha         1 5C6       0.138750
     46 H13          3.9410     1.8670    -0.0980 ha         1 5C6       0.138750
     47 H14          3.8520     3.9730    -1.3690 ha         1 5C6       0.140750
     48 H15          1.6180     5.8630    -1.6210 ho         1 5C6       0.419000
     49 H16          0.6730     5.3660     1.1380 ha         1 5C6       0.140750
     50 H17          0.7500     3.2620     2.4140 ha         1 5C6       0.138750
     51 H18          4.2700    -1.2010     2.3390 ha         1 5C6       0.137000
     52 H19          4.4150    -3.3140     3.5900 ha         1 5C6       0.135000
     53 H20          2.3710    -4.5740     4.1330 ha         1 5C6       0.133000
     54 H21         -0.1950    -4.3190     4.3930 hn         1 5C6       0.450800
     55 H22          0.0600    -3.2070     0.9590 ha         1 5C6       0.148000
     56 H23         -1.7000    -3.4660    -0.7390 ha         1 5C6       0.127000
     57 H24         -3.8610    -4.4350    -0.1650 ha         1 5C6       0.131000
     58 H25         -5.3710    -5.4270     1.5260 ha         1 5C6       0.134000
     59 H26         -5.7610    -6.1420     3.8250 ha         1 5C6       0.128000
     60 H27         -4.0110    -5.8920     5.5370 ha         1 5C6       0.128000
     61 H28         -1.8430    -4.9230     4.9760 ha         1 5C6       0.122000
     62 H29         -0.0060    -1.6030     2.1720 ha         1 5C6       0.152000
@<TRIPOS>BOND
     1     9     8 1   
     2     7     8 ar  
     3     7     6 ar  
     4     8    10 ar  
     5     6     5 ar  
     6    10    11 ar  
     7     5    11 ar  
     8     5     4 1   
     9     4    12 1   
    10     4     3 2   
    11    13    12 ar  
    12    13    14 ar  
    13    12    18 ar  
    14     2     3 1   
    15     2     1 1   
    16    14    15 ar  
    17    18    17 ar  
    18    15    17 ar  
    19    15    16 1   
    20     3    19 1   
    21    31    30 ar  
    22    31    32 ar  
    23    30    29 ar  
    24    32    33 ar  
    25    29    28 ar  
    26    29    34 ar  
    27    28    27 ar  
    28    19    35 ar  
    29    19    20 ar  
    30    33    34 ar  
    31    35    23 ar  
    32    34    25 ar  
    33    27    26 ar  
    34    20    21 ar  
    35    25    26 ar  
    36    25    24 1   
    37    23    24 1   
    38    23    22 ar  
    39    21    22 ar  
    40     1    36 1   
    41     1    37 1   
    42     1    38 1   
    43     2    39 1   
    44     2    40 1   
    45     6    41 1   
    46     7    42 1   
    47     9    43 1   
    48    10    44 1   
    49    11    45 1   
    50    13    46 1   
    51    14    47 1   
    52    16    48 1   
    53    17    49 1   
    54    18    50 1   
    55    20    51 1   
    56    21    52 1   
    57    22    53 1   
    58    24    54 1   
    59    26    55 1   
    60    27    56 1   
    61    28    57 1   
    62    30    58 1   
    63    31    59 1   
    64    32    60 1   
    65    33    61 1   
    66    35    62 1   
@<TRIPOS>SUBSTRUCTURE
     1 5C6         1 TEMP              0 ****  ****    0 ROOT
