@<TRIPOS>MOLECULE
5C6
   62    66     1     0     0
SMALL
bcc


@<TRIPOS>ATOM
      1 C01          0.0000     0.0000     0.0000 c3         1 5C6      -0.000100
      2 C02          1.5300     0.0000     0.0000 c3         1 5C6       0.007800
      3 C03          2.0330     0.0000     1.4210 ce         1 5C6      -0.050400
      4 C04          2.4020     1.1640     2.0090 cf         1 5C6      -0.012400
      5 C05          2.8550     1.1700     3.4170 ca         1 5C6      -0.054300
      6 C06          1.9700     0.8220     4.4390 ca         1 5C6      -0.072500
      7 C07          2.3980     0.8230     5.7500 ca         1 5C6      -0.139250
      8 C08          3.7080     1.1710     6.0540 ca         1 5C6       0.123100
      9 O09          4.1250     1.1700     7.3470 oh         1 5C6      -0.501100
     10 C10          4.5920     1.5170     5.0410 ca         1 5C6      -0.139250
     11 C11          4.1720     1.5180     3.7280 ca         1 5C6      -0.072500
     12 C12          2.3520     2.4290     1.2430 ca         1 5C6      -0.054300
     13 C13          3.2250     2.6340     0.1730 ca         1 5C6      -0.072500
     14 C14          3.1750     3.8130    -0.5390 ca         1 5C6      -0.139250
     15 C15          2.2590     4.7970    -0.1920 ca         1 5C6       0.123100
     16 O16          2.2130     5.9580    -0.8960 oh         1 5C6      -0.501100
     17 C17          1.3880     4.5970     0.8720 ca         1 5C6      -0.139250
     18 C18          1.4290     3.4180     1.5850 ca         1 5C6      -0.072500
     19 C19          2.1220    -1.2630     2.1690 ca         1 5C6      -0.019800
     20 C20          3.3690    -1.7520     2.5750 ca         1 5C6      -0.109000
     21 C21          3.4490    -2.9360     3.2770 ca         1 5C6      -0.072000
     22 C22          2.3010    -3.6450     3.5820 ca         1 5C6      -0.137000
     23 C23          1.0570    -3.1680     3.1840 ca         1 5C6       0.009600
     24 N24         -0.1000    -3.8890     3.4940 nu         1 5C6      -0.224000
     25 C25         -1.1030    -4.0410     2.5400 ca         1 5C6       0.051600
     26 C26         -0.8920    -3.6410     1.2380 ca         1 5C6      -0.217000
     27 C27         -1.8890    -3.7870     0.2780 ca         1 5C6      -0.047000
     28 C28         -3.0980    -4.3290     0.5960 ca         1 5C6      -0.148000
     29 C29         -3.3530    -4.7500     1.9120 ca         1 5C6       0.005000
     30 C30         -4.5920    -5.3110     2.2690 ca         1 5C6      -0.094000
     31 C31         -4.8060    -5.7090     3.5530 ca         1 5C6      -0.094000
     32 C32         -3.8150    -5.5670     4.5230 ca         1 5C6      -0.107000
     33 C33         -2.6040    -5.0270     4.2130 ca         1 5C6      -0.093000
     34 C34         -2.3450    -4.6100     2.8980 ca         1 5C6      -0.074000
     35 C35          0.9620    -1.9760     2.4830 ca         1 5C6      -0.143000
     36 H1          -0.3610     0.1970     1.0020 hc         1 5C6       0.007367
     37 H2          -0.3610    -0.9670    -0.3300 hc         1 5C6       0.007367
     38 H3          -0.3610     0.7690    -0.6720 hc         1 5C6       0.007367
     39 H4           1.8910     0.8840    -0.5110 hc         1 5C6       0.028200
     40 H5           1.8910    -0.8840    -0.5110 hc         1 5C6       0.028200
     41 H8           0.9480     0.5510     4.2030 ha         1 5C6       0.110250
     42 H9           1.7110     0.5530     6.5430 ha         1 5C6       0.114000
     43 H10          4.0920     2.0490     7.6880 ho         1 5C6       0.402000
     44 H11          5.6130     1.7870     5.2820 ha         1 5C6       0.114000
     45 H12          4.8620     1.7880     2.9380 ha         1 5C6       0.110250
     46 H13          3.9410     1.8670    -0.0980 ha         1 5C6       0.110250
     47 H14          3.8520     3.9730    -1.3690 ha         1 5C6       0.114000
     48 H15          2.8090     6.5810    -0.5140 ho         1 5C6       0.402000
     49 H16          0.6730     5.3660     1.1380 ha         1 5C6       0.114000
     50 H17          0.7500     3.2620     2.4140 ha         1 5C6       0.110250
     51 H18          4.2700    -1.2010     2.3390 ha         1 5C6       0.112000
     52 H19          4.4150    -3.3140     3.5900 ha         1 5C6       0.104000
     53 H20          2.3710    -4.5740     4.1330 ha         1 5C6       0.108000
     54 H21         -0.2040    -4.3010     4.4000 hn         1 5C6       0.291800
     55 H22          0.0600    -3.2070     0.9590 ha         1 5C6       0.136000
     56 H23         -1.7000    -3.4660    -0.7390 ha         1 5C6       0.097000
     57 H24         -3.8610    -4.4350    -0.1650 ha         1 5C6       0.108000
     58 H25         -5.3710    -5.4270     1.5260 ha         1 5C6       0.107000
     59 H26         -5.7610    -6.1420     3.8250 ha         1 5C6       0.100000
     60 H27         -4.0110    -5.8920     5.5370 ha         1 5C6       0.100000
     61 H28         -1.8430    -4.9230     4.9760 ha         1 5C6       0.100000
     62 H29         -0.0060    -1.6030     2.1720 ha         1 5C6       0.137000
@<TRIPOS>BOND
     1     1     2 1   
     2     1    36 1   
     3     1    37 1   
     4     1    38 1   
     5     2     3 1   
     6     2    39 1   
     7     2    40 1   
     8     3     4 2   
     9     3    19 1   
    10     4     5 1   
    11     4    12 1   
    12     5     6 ar  
    13     5    11 ar  
    14     6     7 ar  
    15     6    41 1   
    16     7     8 ar  
    17     7    42 1   
    18     8     9 1   
    19     8    10 ar  
    20     9    43 1   
    21    10    11 ar  
    22    10    44 1   
    23    11    45 1   
    24    12    13 ar  
    25    12    18 ar  
    26    13    14 ar  
    27    13    46 1   
    28    14    15 ar  
    29    14    47 1   
    30    15    16 1   
    31    15    17 ar  
    32    16    48 1   
    33    17    18 ar  
    34    17    49 1   
    35    18    50 1   
    36    19    20 ar  
    37    19    35 ar  
    38    20    21 ar  
    39    20    51 1   
    40    21    22 ar  
    41    21    52 1   
    42    22    23 ar  
    43    22    53 1   
    44    23    24 1   
    45    23    35 ar  
    46    24    25 1   
    47    24    54 1   
    48    25    26 ar  
    49    25    34 ar  
    50    26    27 ar  
    51    26    55 1   
    52    27    28 ar  
    53    27    56 1   
    54    28    29 ar  
    55    28    57 1   
    56    29    30 ar  
    57    29    34 ar  
    58    30    31 ar  
    59    30    58 1   
    60    31    32 ar  
    61    31    59 1   
    62    32    33 ar  
    63    32    60 1   
    64    33    34 ar  
    65    33    61 1   
    66    35    62 1   
@<TRIPOS>SUBSTRUCTURE
     1 5C6         1 TEMP              0 ****  ****    0 ROOT
