@<TRIPOS>MOLECULE
molecule
   53    55     1     0     0
SMALL
bcc


@<TRIPOS>ATOM
      1 C01          0.0000     0.0000     0.0000 c3         1 5C7      -0.049900
      2 C02          1.5070     0.0000     0.0000 ce         1 5C7      -0.042400
      3 C03          2.1850     0.0000     1.1740 cf         1 5C7      -0.030400
      4 C04          3.6640    -0.0000     1.1740 ca         1 5C7      -0.052300
      5 C05          4.3640    -1.0920     0.6570 ca         1 5C7      -0.101250
      6 C06          5.7430    -1.0850     0.6540 ca         1 5C7      -0.154000
      7 C07          6.4350     0.0050     1.1630 ca         1 5C7       0.104100
      8 O08          7.7930     0.0080     1.1580 oh         1 5C7      -0.522600
      9 C09          5.7420     1.0940     1.6780 ca         1 5C7      -0.154000
     10 C10          4.3640     1.0940     1.6850 ca         1 5C7      -0.101250
     11 C11          1.4460    -0.0010     2.4550 ca         1 5C7      -0.052300
     12 C12          1.5380    -1.0970     3.3160 ca         1 5C7      -0.101250
     13 C13          0.8470    -1.0940     4.5090 ca         1 5C7      -0.154000
     14 C14          0.0610    -0.0030     4.8550 ca         1 5C7       0.104100
     15 O15         -0.6180    -0.0040     6.0320 oh         1 5C7      -0.522600
     16 C16         -0.0330     1.0880     4.0020 ca         1 5C7      -0.154000
     17 C17          0.6570     1.0950     2.8090 ca         1 5C7      -0.101250
     18 C18          2.2420     0.0010    -1.2740 ca         1 5C7      -0.062800
     19 C19          3.0400     1.0950    -1.6240 ca         1 5C7      -0.111000
     20 C20          3.7270     1.0890    -2.8200 ca         1 5C7      -0.127000
     21 C21          3.6260     0.0030    -3.6730 ca         1 5C7      -0.066300
     22 C22          4.3790     0.0060    -4.9790 c3         1 5C7      -0.025700
     23 C23          3.9230     1.1920    -5.8300 c3         1 5C7      -0.080767
     24 C24          5.8800     0.1240    -4.7020 c3         1 5C7      -0.080767
     25 C25          4.1010    -1.2980    -5.7290 c3         1 5C7      -0.080767
     26 C26          2.8390    -1.0820    -3.3340 ca         1 5C7      -0.127000
     27 C27          2.1520    -1.0940    -2.1390 ca         1 5C7      -0.111000
     28 H1          -0.3610    -0.1670    -1.0080 hc         1 5C7       0.047367
     29 H2          -0.3610     0.9560     0.3590 hc         1 5C7       0.047367
     30 H3          -0.3610    -0.7890     0.6490 hc         1 5C7       0.047367
     31 H4           3.8250    -1.9430     0.2590 ha         1 5C7       0.138000
     32 H5           6.2870    -1.9320     0.2530 ha         1 5C7       0.140250
     33 H6           8.1110    -0.3340     1.9770 ho         1 5C7       0.418000
     34 H7           6.2850     1.9430     2.0740 ha         1 5C7       0.140250
     35 H8           3.8250     1.9440     2.0870 ha         1 5C7       0.138000
     36 H9           2.1510    -1.9480     3.0460 ha         1 5C7       0.138000
     37 H10          0.9180    -1.9440     5.1770 ha         1 5C7       0.140250
     38 H11         -1.4700    -0.3890     5.9030 ho         1 5C7       0.418000
     39 H12         -0.6470     1.9380     4.2770 ha         1 5C7       0.140250
     40 H13          0.5830     1.9480     2.1440 ha         1 5C7       0.138000
     41 H14          3.1190     1.9450    -0.9570 ha         1 5C7       0.133000
     42 H15          4.3460     1.9350    -3.0920 ha         1 5C7       0.135000
     43 H16          4.3200     1.0910    -6.8320 hc         1 5C7       0.036922
     44 H17          4.2850     2.1130    -5.3890 hc         1 5C7       0.036922
     45 H18          2.8410     1.2120    -5.8710 hc         1 5C7       0.036922
     46 H19          6.0940     1.1010    -4.2850 hc         1 5C7       0.036922
     47 H20          6.1790    -0.6430    -3.9980 hc         1 5C7       0.036922
     48 H21          6.4290    -0.0010    -5.6280 hc         1 5C7       0.036922
     49 H22          4.4240    -2.1380    -5.1270 hc         1 5C7       0.036922
     50 H23          3.0390    -1.3820    -5.9260 hc         1 5C7       0.036922
     51 H24          4.6420    -1.2970    -6.6680 hc         1 5C7       0.036922
     52 H25          2.7680    -1.9290    -4.0060 ha         1 5C7       0.135000
     53 H26          1.5360    -1.9450    -1.8760 ha         1 5C7       0.133000
@<TRIPOS>BOND
     1     8     7 1
     2    16    17 ar
     3    16    14 ar
     4     6     7 ar
     5     6     5 ar
     6     7     9 ar
     7    17    11 ar
     8    15    14 1
     9     5     4 ar
    10    14    13 ar
    11     9    10 ar
    12     4    10 ar
    13     4     3 1
    14    11     3 1
    15    11    12 ar
    16    13    12 ar
    17     3     2 2
    18    19    20 ar
    19    19    18 ar
    20     2     1 1
    21     2    18 1
    22    20    21 ar
    23    18    27 ar
    24    23    22 1
    25    21    22 1
    26    21    26 ar
    27    25    22 1
    28    27    26 ar
    29    22    24 1
    30     1    28 1
    31     1    29 1
    32     1    30 1
    33     5    31 1
    34     6    32 1
    35     8    33 1
    36     9    34 1
    37    10    35 1
    38    12    36 1
    39    13    37 1
    40    15    38 1
    41    16    39 1
    42    17    40 1
    43    19    41 1
    44    20    42 1
    45    23    43 1
    46    23    44 1
    47    23    45 1
    48    24    46 1
    49    24    47 1
    50    24    48 1
    51    25    49 1
    52    25    50 1
    53    25    51 1
    54    26    52 1
    55    27    53 1
@<TRIPOS>SUBSTRUCTURE
     1 5C7         1 TEMP              0 ****  ****    0 ROOT
