@<TRIPOS>MOLECULE
molecule
   47    50     1     0     0
SMALL
bcc


@<TRIPOS>ATOM
      1 C01          0.0000     0.0000     0.0000 c3         1 5C8      -0.049900
      2 C02          1.5070     0.0000     0.0000 ce         1 5C8      -0.048400
      3 C03          2.1850     0.0000     1.1750 cf         1 5C8      -0.025400
      4 C04          1.4460    -0.0000     2.4560 ca         1 5C8      -0.054300
      5 C05          1.5380    -1.0940     3.3180 ca         1 5C8      -0.101250
      6 C06          0.8480    -1.0900     4.5100 ca         1 5C8      -0.154000
      7 C07          0.0610     0.0010     4.8560 ca         1 5C8       0.105100
      8 O08         -0.6180     0.0010     6.0320 oh         1 5C8      -0.522600
      9 C09         -0.0330     1.0920     4.0020 ca         1 5C8      -0.154000
     10 C10          0.6590     1.0970     2.8100 ca         1 5C8      -0.101250
     11 C11          3.6650    -0.0010     1.1750 ca         1 5C8      -0.054300
     12 C12          4.3640    -1.0930     0.6580 ca         1 5C8      -0.101250
     13 C13          5.7420    -1.0910     0.6600 ca         1 5C8      -0.154000
     14 C14          6.4360    -0.0020     1.1740 ca         1 5C8       0.105100
     15 O15          7.7940    -0.0030     1.1750 oh         1 5C8      -0.522600
     16 C16          5.7440     1.0870     1.6880 ca         1 5C8      -0.154000
     17 C17          4.3650     1.0940     1.6850 ca         1 5C8      -0.101250
     18 C18          2.2420    -0.0010    -1.2730 ca         1 5C8      -0.049800
     19 C19          3.0450     1.1050    -1.6190 ca         1 5C8      -0.107000
     20 C20          3.7310     1.1270    -2.7880 ca         1 5C8      -0.113000
     21 C21          3.6480     0.0370    -3.6740 ca         1 5C8      -0.033000
     22 C22          4.3510     0.0390    -4.8900 ca         1 5C8      -0.114000
     23 C23          4.2530    -1.0300    -5.7290 ca         1 5C8      -0.127000
     24 C24          3.4620    -2.1300    -5.4010 ca         1 5C8      -0.126000
     25 C25          2.7660    -2.1680    -4.2320 ca         1 5C8      -0.118000
     26 C26          2.8440    -1.0830    -3.3400 ca         1 5C8      -0.035000
     27 C27          2.1450    -1.0930    -2.1240 ca         1 5C8      -0.111000
     28 H1          -0.3610    -0.2190    -0.9980 hc         1 5C8       0.047367
     29 H2          -0.3610    -0.7550     0.6880 hc         1 5C8       0.047367
     30 H3          -0.3610     0.9730     0.3090 hc         1 5C8       0.047367
     31 H4           2.1510    -1.9460     3.0500 ha         1 5C8       0.138250
     32 H5           0.9190    -1.9390     5.1790 ha         1 5C8       0.140750
     33 H6          -1.4730    -0.3740     5.9020 ho         1 5C8       0.418500
     34 H7          -0.6450     1.9420     4.2760 ha         1 5C8       0.140750
     35 H8           0.5850     1.9490     2.1440 ha         1 5C8       0.138250
     36 H9           3.8240    -1.9430     0.2580 ha         1 5C8       0.138250
     37 H10          6.2850    -1.9380     0.2600 ha         1 5C8       0.140750
     38 H11          8.1070    -0.3830     1.9790 ho         1 5C8       0.418500
     39 H12          6.2880     1.9350     2.0860 ha         1 5C8       0.140750
     40 H13          3.8260     1.9430     2.0860 ha         1 5C8       0.138250
     41 H14          3.1070     1.9520    -0.9460 ha         1 5C8       0.136000
     42 H15          4.3430     1.9840    -3.0400 ha         1 5C8       0.135000
     43 H16          4.9690     0.8860    -5.1590 ha         1 5C8       0.133000
     44 H17          4.7960    -1.0240    -6.6660 ha         1 5C8       0.128000
     45 H18          3.4010    -2.9660    -6.0860 ha         1 5C8       0.128000
     46 H19          2.1560    -3.0290    -3.9890 ha         1 5C8       0.131000
     47 H20          1.4250    -1.8770    -1.9200 ha         1 5C8       0.136000
@<TRIPOS>BOND
     1     8     7 1   
     2     9     7 ar  
     3     9    10 ar  
     4     7     6 ar  
     5    10     4 ar  
     6     6     5 ar  
     7     4     5 ar  
     8     4     3 1   
     9     3    11 1   
    10     3     2 2   
    11    12    11 ar  
    12    12    13 ar  
    13    11    17 ar  
    14    13    14 ar  
    15    17    16 ar  
    16    14    16 ar  
    17    14    15 1   
    18     1     2 1   
    19     2    18 1   
    20    18    27 ar  
    21    18    19 ar  
    22    27    26 ar  
    23    19    20 ar  
    24    26    25 ar  
    25    26    21 ar  
    26    25    24 ar  
    27    20    21 ar  
    28    21    22 ar  
    29    24    23 ar  
    30    22    23 ar  
    31     1    28 1   
    32     1    29 1   
    33     1    30 1   
    34     5    31 1   
    35     6    32 1   
    36     8    33 1   
    37     9    34 1   
    38    10    35 1   
    39    12    36 1   
    40    13    37 1   
    41    15    38 1   
    42    16    39 1   
    43    17    40 1   
    44    19    41 1   
    45    20    42 1   
    46    22    43 1   
    47    23    44 1   
    48    24    45 1   
    49    25    46 1   
    50    27    47 1   
@<TRIPOS>SUBSTRUCTURE
     1 5C8         1 TEMP              0 ****  ****    0 ROOT
