@<TRIPOS>MOLECULE
5C9
   59    62     1     0     0
SMALL
bcc


@<TRIPOS>ATOM
      1 C01          0.0000     0.0000     0.0000 c3         1 5C9       0.008900
      2 C02          1.5300     0.0000     0.0000 c3         1 5C9       0.006800
      3 C03          2.0320     0.0000     1.4210 ce         1 5C9      -0.045400
      4 C04          2.3390     1.1710     2.0330 cf         1 5C9      -0.019400
      5 C05          2.1080     2.4530     1.3310 ca         1 5C9      -0.047800
      6 C06          1.1130     3.3250     1.7780 ca         1 5C9      -0.076500
      7 C07          0.9020     4.5200     1.1230 ca         1 5C9      -0.137250
      8 C08          1.6760     4.8560     0.0210 ca         1 5C9       0.121600
      9 O09          1.4650     6.0330    -0.6220 oh         1 5C9      -0.501100
     10 C10          2.6670     3.9910    -0.4270 ca         1 5C9      -0.137250
     11 C11          2.8890     2.7970     0.2260 ca         1 5C9      -0.076500
     12 C12          2.9040     1.1660     3.3990 ca         1 5C9      -0.047800
     13 C13          4.1810     0.6490     3.6270 ca         1 5C9      -0.076500
     14 C14          4.7040     0.6470     4.9020 ca         1 5C9      -0.137250
     15 C15          3.9630     1.1560     5.9600 ca         1 5C9       0.121600
     16 O16          4.4820     1.1520     7.2160 oh         1 5C9      -0.501100
     17 C17          2.6920     1.6720     5.7380 ca         1 5C9      -0.137250
     18 C18          2.1640     1.6830     4.4640 ca         1 5C9      -0.076500
     19 C19          2.1890    -1.2700     2.1450 ca         1 5C9      -0.012800
     20 C20          1.3770    -1.5560     3.2480 ca         1 5C9      -0.122000
     21 C21          1.5270    -2.7490     3.9240 ca         1 5C9      -0.064000
     22 C22          2.4780    -3.6660     3.5180 ca         1 5C9      -0.156000
     23 C23          3.2920    -3.3930     2.4220 ca         1 5C9       0.025600
     24 N24          4.2520    -4.3230     2.0170 nu         1 5C9      -0.233000
     25 C25          5.4300    -3.8900     1.4030 ca         1 5C9       0.031600
     26 C26          5.9650    -2.6470     1.7230 ca         1 5C9      -0.171000
     27 C27          7.1290    -2.2220     1.1150 ca         1 5C9      -0.064000
     28 C28          7.7640    -3.0310     0.1900 ca         1 5C9      -0.140000
     29 C29          7.2350    -4.2680    -0.1290 ca         1 5C9      -0.053300
     30 C30          7.9300    -5.1450    -1.1380 c3         1 5C9       0.061200
     31 C31          6.0740    -4.7030     0.4780 ca         1 5C9      -0.160000
     32 C32          3.1470    -2.2010     1.7310 ca         1 5C9      -0.154000
     33 H1          -0.3610     0.4970    -0.8920 hc         1 5C9       0.004367
     34 H2          -0.3610     0.5240     0.8770 hc         1 5C9       0.004367
     35 H3          -0.3610    -1.0210     0.0160 hc         1 5C9       0.004367
     36 H4           1.8920     0.8840    -0.5110 hc         1 5C9       0.027700
     37 H5           1.8920    -0.8850    -0.5110 hc         1 5C9       0.027700
     38 H8           0.5090     3.0640     2.6380 ha         1 5C9       0.110500
     39 H9           0.1310     5.1970     1.4690 ha         1 5C9       0.113750
     40 H10          2.0120     6.7010    -0.2430 ho         1 5C9       0.401500
     41 H11          3.2710     4.2580    -1.2860 ha         1 5C9       0.113750
     42 H12          3.6620     2.1230    -0.1230 ha         1 5C9       0.110500
     43 H13          4.7600     0.2510     2.8020 ha         1 5C9       0.110500
     44 H14          5.6950     0.2460     5.0790 ha         1 5C9       0.113750
     45 H15          4.9770     1.9420     7.3540 ho         1 5C9       0.401500
     46 H16          2.1180     2.0710     6.5650 ha         1 5C9       0.113750
     47 H17          1.1740     2.0850     4.2910 ha         1 5C9       0.110500
     48 H18          0.6300    -0.8400     3.5700 ha         1 5C9       0.111000
     49 H19          0.8970    -2.9680     4.7780 ha         1 5C9       0.102000
     50 H20          2.5910    -4.6000     4.0540 ha         1 5C9       0.107000
     51 H21          4.0930    -5.3010     2.1590 hn         1 5C9       0.285800
     52 H22          5.4680    -2.0130     2.4470 ha         1 5C9       0.126000
     53 H23          7.5460    -1.2530     1.3640 ha         1 5C9       0.099000
     54 H24          8.6770    -2.6940    -0.2850 ha         1 5C9       0.107000
     55 H25          8.3250    -6.0240    -0.6420 hc         1 5C9       0.007367
     56 H26          7.2240    -5.4490    -1.9010 hc         1 5C9       0.007367
     57 H27          8.7430    -4.5950    -1.5970 hc         1 5C9       0.007367
     58 H28          5.6600    -5.6720     0.2270 ha         1 5C9       0.111000
     59 H29          3.7800    -1.9860     0.8780 ha         1 5C9       0.130000
@<TRIPOS>BOND
     1     1     2 1   
     2     1    33 1   
     3     1    34 1   
     4     1    35 1   
     5     2     3 1   
     6     2    36 1   
     7     2    37 1   
     8     3     4 2   
     9     3    19 1   
    10     4     5 1   
    11     4    12 1   
    12     5     6 ar  
    13     5    11 ar  
    14     6     7 ar  
    15     6    38 1   
    16     7     8 ar  
    17     7    39 1   
    18     8     9 1   
    19     8    10 ar  
    20     9    40 1   
    21    10    11 ar  
    22    10    41 1   
    23    11    42 1   
    24    12    13 ar  
    25    12    18 ar  
    26    13    14 ar  
    27    13    43 1   
    28    14    15 ar  
    29    14    44 1   
    30    15    16 1   
    31    15    17 ar  
    32    16    45 1   
    33    17    18 ar  
    34    17    46 1   
    35    18    47 1   
    36    19    20 ar  
    37    19    32 ar  
    38    20    21 ar  
    39    20    48 1   
    40    21    22 ar  
    41    21    49 1   
    42    22    23 ar  
    43    22    50 1   
    44    23    24 1   
    45    23    32 ar  
    46    24    25 1   
    47    24    51 1   
    48    25    26 ar  
    49    25    31 ar  
    50    26    27 ar  
    51    26    52 1   
    52    27    28 ar  
    53    27    53 1   
    54    28    29 ar  
    55    28    54 1   
    56    29    30 1   
    57    29    31 ar  
    58    30    55 1   
    59    30    56 1   
    60    30    57 1   
    61    31    58 1   
    62    32    59 1   
@<TRIPOS>SUBSTRUCTURE
     1 5C9         1 TEMP              0 ****  ****    0 ROOT
