@<TRIPOS>MOLECULE
molecule
   59    62     1     0     0
SMALL
bcc


@<TRIPOS>ATOM
      1 C01          0.0000     0.0000     0.0000 c3         1 5C9      -0.084100
      2 C02          1.5300     0.0000     0.0000 c3         1 5C9      -0.047200
      3 C03          2.0320     0.0000     1.4210 ce         1 5C9      -0.036400
      4 C04          2.3390     1.1710     2.0330 cf         1 5C9      -0.031400
      5 C05          2.1080     2.4530     1.3310 ca         1 5C9      -0.046800
      6 C06          1.1130     3.3250     1.7780 ca         1 5C9      -0.104000
      7 C07          0.9020     4.5200     1.1230 ca         1 5C9      -0.152500
      8 C08          1.6760     4.8560     0.0210 ca         1 5C9       0.103600
      9 O09          1.4650     6.0330    -0.6220 oh         1 5C9      -0.523100
     10 C10          2.6670     3.9910    -0.4270 ca         1 5C9      -0.152500
     11 C11          2.8890     2.7970     0.2260 ca         1 5C9      -0.104000
     12 C12          2.9040     1.1660     3.3990 ca         1 5C9      -0.046800
     13 C13          4.1810     0.6490     3.6270 ca         1 5C9      -0.104000
     14 C14          4.7040     0.6470     4.9020 ca         1 5C9      -0.152500
     15 C15          3.9630     1.1560     5.9600 ca         1 5C9       0.103600
     16 O16          4.4820     1.1520     7.2160 oh         1 5C9      -0.523100
     17 C17          2.6920     1.6720     5.7380 ca         1 5C9      -0.152500
     18 C18          2.1640     1.6830     4.4640 ca         1 5C9      -0.104000
     19 C19          2.1890    -1.2700     2.1450 ca         1 5C9      -0.025800
     20 C20          1.3770    -1.5560     3.2480 ca         1 5C9      -0.141000
     21 C21          1.5270    -2.7490     3.9240 ca         1 5C9      -0.095000
     22 C22          2.4780    -3.6660     3.5180 ca         1 5C9      -0.179000
     23 C23          3.2920    -3.3930     2.4220 ca         1 5C9       0.174600
     24 N24          4.2520    -4.3230     2.0170 nu         1 5C9      -0.687000
     25 C25          5.4300    -3.8900     1.4030 ca         1 5C9       0.179600
     26 C26          5.9650    -2.6470     1.7230 ca         1 5C9      -0.185000
     27 C27          7.1290    -2.2220     1.1150 ca         1 5C9      -0.097000
     28 C28          7.7640    -3.0310     0.1900 ca         1 5C9      -0.163000
     29 C29          7.2350    -4.2680    -0.1290 ca         1 5C9      -0.050300
     30 C30          7.9300    -5.1450    -1.1380 c3         1 5C9      -0.048800
     31 C31          6.0740    -4.7030     0.4780 ca         1 5C9      -0.183000
     32 C32          3.1470    -2.2010     1.7310 ca         1 5C9      -0.169000
     33 H1          -0.3610     0.4970    -0.8920 hc         1 5C9       0.037367
     34 H2          -0.3610    -1.0210     0.0150 hc         1 5C9       0.037367
     35 H3          -0.3610     0.5240     0.8770 hc         1 5C9       0.037367
     36 H4           1.8920    -0.8850    -0.5110 hc         1 5C9       0.055200
     37 H5           1.8920     0.8840    -0.5110 hc         1 5C9       0.055200
     38 H8           0.5090     3.0640     2.6380 ha         1 5C9       0.136250
     39 H9           0.1310     5.1970     1.4690 ha         1 5C9       0.140250
     40 H10          1.9960     6.7060    -0.2290 ho         1 5C9       0.418500
     41 H11          3.2710     4.2580    -1.2860 ha         1 5C9       0.140250
     42 H12          3.6620     2.1230    -0.1230 ha         1 5C9       0.136250
     43 H13          4.7600     0.2510     2.8020 ha         1 5C9       0.136250
     44 H14          5.6950     0.2460     5.0790 ha         1 5C9       0.140250
     45 H15          4.9170     1.9720     7.3790 ho         1 5C9       0.418500
     46 H16          2.1180     2.0710     6.5650 ha         1 5C9       0.140250
     47 H17          1.1740     2.0850     4.2910 ha         1 5C9       0.136250
     48 H18          0.6300    -0.8400     3.5700 ha         1 5C9       0.135000
     49 H19          0.8970    -2.9680     4.7780 ha         1 5C9       0.132000
     50 H20          2.5910    -4.6000     4.0540 ha         1 5C9       0.131000
     51 H21          4.0990    -5.3000     2.1710 hn         1 5C9       0.448800
     52 H22          5.4680    -2.0130     2.4470 ha         1 5C9       0.144000
     53 H23          7.5460    -1.2530     1.3640 ha         1 5C9       0.129000
     54 H24          8.6770    -2.6940    -0.2850 ha         1 5C9       0.130000
     55 H25          7.2850    -5.2910    -1.9960 hc         1 5C9       0.043700
     56 H26          8.8510    -4.6710    -1.4560 hc         1 5C9       0.043700
     57 H27          8.1550    -6.1050    -0.6890 hc         1 5C9       0.043700
     58 H28          5.6600    -5.6720     0.2270 ha         1 5C9       0.132000
     59 H29          3.7800    -1.9860     0.8780 ha         1 5C9       0.147000
@<TRIPOS>BOND
     1    30    29 1
     2    28    29 ar
     3    28    27 ar
     4    29    31 ar
     5    27    26 ar
     6    31    25 ar
     7    26    25 ar
     8    25    24 1
     9    22    21 ar
    10    22    23 ar
    11    21    20 ar
    12    24    23 1
    13    23    32 ar
    14    20    19 ar
    15    32    19 ar
    16    19     3 1
    17     1     2 1
    18     9     8 1
    19     3     2 1
    20     3     4 2
    21     8     7 ar
    22     8    10 ar
    23     7     6 ar
    24    10    11 ar
    25     6     5 ar
    26    11     5 ar
    27     5     4 1
    28     4    12 1
    29    13    12 ar
    30    13    14 ar
    31    12    18 ar
    32    14    15 ar
    33    18    17 ar
    34    15    17 ar
    35    15    16 1
    36     1    33 1
    37     1    34 1
    38     1    35 1
    39     2    36 1
    40     2    37 1
    41     6    38 1
    42     7    39 1
    43     9    40 1
    44    10    41 1
    45    11    42 1
    46    13    43 1
    47    14    44 1
    48    16    45 1
    49    17    46 1
    50    18    47 1
    51    20    48 1
    52    21    49 1
    53    22    50 1
    54    24    51 1
    55    26    52 1
    56    27    53 1
    57    28    54 1
    58    30    55 1
    59    30    56 1
    60    30    57 1
    61    31    58 1
    62    32    59 1
@<TRIPOS>SUBSTRUCTURE
     1 5C9         1 TEMP              0 ****  ****    0 ROOT
