@<TRIPOS>MOLECULE
molecule
   49    51     1     0     0
SMALL
bcc


@<TRIPOS>ATOM
      1 N            0.0000     0.0000     0.0000 nz         1 5CA      -0.796600
      2 CA           1.4690     0.0000     0.0000 c3         1 5CA       0.046500
      3 CB           1.9790     0.0000     1.4430 c3         1 5CA      -0.006300
      4 SG           1.3730     1.4810     2.2980 sh         1 5CA      -0.426900
      5 C            1.9710    -1.2310    -0.7110 c          1 5CA       0.666100
      6 O            1.2420    -2.1900    -0.8500 o          1 5CA      -0.514100
      7 N3S          3.2290    -1.2640    -1.1910 ns         1 5CA      -0.656300
      8 S            3.7810    -2.6160    -1.9710 s6         1 5CA       1.630100
      9 O1S          5.1030    -2.3060    -2.3940 o          1 5CA      -0.596300
     10 O2S          3.4190    -3.7140    -1.1450 o          1 5CA      -0.596300
     11 O5'          2.9650    -2.7710    -3.2470 os         1 5CA      -0.496500
     12 C5'          3.4420    -1.7840    -4.1640 c3         1 5CA       0.113400
     13 C4'          2.6580    -1.8850    -5.4740 c3         1 5CA       0.133100
     14 O4'          1.2870    -1.5140    -5.2540 os         1 5CA      -0.423600
     15 C3'          3.2410    -0.9060    -6.5110 c3         1 5CA       0.090100
     16 O3'          3.7050    -1.6070    -7.6660 oh         1 5CA      -0.555800
     17 C2'          2.0450     0.0110    -6.8760 c3         1 5CA       0.096100
     18 O2'          2.0190     0.2780    -8.2810 oh         1 5CA      -0.544800
     19 C1'          0.8310    -0.8550    -6.4550 c3         1 5CA       0.262800
     20 N9          -0.3350    -0.0140    -6.1730 na         1 5CA      -0.251000
     21 C8          -0.6720     0.5160    -4.9620 cc         1 5CA       0.393700
     22 N7          -1.7670     1.2120    -5.0720 nd         1 5CA      -0.587100
     23 C5          -2.1990     1.1720    -6.3540 ca         1 5CA      -0.224200
     24 C6          -3.2940     1.7200    -7.0450 ca         1 5CA       0.795200
     25 N6          -4.2260     2.5030    -6.3870 nv         1 5CA      -0.977500
     26 N1          -3.4130     1.4680    -8.3450 nb         1 5CA      -0.824000
     27 C2          -2.5290     0.7220    -8.9800 ca         1 5CA       0.762900
     28 N3          -1.4880     0.1890    -8.3740 nb         1 5CA      -0.786000
     29 C4          -1.2830     0.3900    -7.0780 ca         1 5CA       0.499800
     30 H           -0.3340    -0.1910    -0.9240 hn         1 5CA       0.472467
     31 HN2         -0.3340     0.8960     0.2960 hn         1 5CA       0.472467
     32 HA           1.8300     0.8840    -0.5110 hx         1 5CA       0.134700
     33 HB1          3.0620     0.0000     1.4440 h1         1 5CA       0.108200
     34 HB2          1.6180    -0.8850     1.9540 h1         1 5CA       0.108200
     35 HG           1.9340     1.5580     3.4990 hs         1 5CA       0.301800
     36 H3S          3.8450    -0.4900    -1.0350 hn         1 5CA       0.356500
     37 H5'1         3.3050    -0.7980    -3.7360 h1         1 5CA       0.073700
     38 H5'2         4.4940    -1.9500    -4.3580 h1         1 5CA       0.073700
     39 H4'          2.7060    -2.8970    -5.8590 h1         1 5CA       0.112700
     40 H3'          4.0400    -0.3230    -6.0690 h1         1 5CA       0.044700
     41 H3T          4.6280    -1.4500    -7.7800 ho         1 5CA       0.417000
     42 H2'          2.0770     0.9300    -6.3030 h1         1 5CA       0.051700
     43 HO'2         2.3840     1.1310    -8.4460 ho         1 5CA       0.413000
     44 H1'          0.6040    -1.5850    -7.2230 h2         1 5CA       0.130700
     45 H8          -0.1110     0.3790    -4.0450 h5         1 5CA       0.047800
     46 H61         -4.1420     2.6590    -5.4020 hn         1 5CA       0.452800
     47 H62         -4.9890     2.9060    -6.8940 hn         1 5CA       0.452800
     48 H2          -2.6650     0.5420   -10.0400 h5         1 5CA       0.074100
     49 HN3         -0.3340    -0.7030     0.6300 hn         1 5CA       0.472467
@<TRIPOS>BOND
     1     1     2 1
     2     1    30 1
     3     1    31 1
     4     2     3 1
     5     2     5 1
     6     2    32 1
     7     3     4 1
     8     3    33 1
     9     3    34 1
    10     4    35 1
    11     5     6 2
    12     5     7 1
    13     7     8 1
    14     7    36 1
    15     8     9 2
    16     8    10 2
    17     8    11 1
    18    11    12 1
    19    12    13 1
    20    12    37 1
    21    12    38 1
    22    13    14 1
    23    13    15 1
    24    13    39 1
    25    14    19 1
    26    15    16 1
    27    15    17 1
    28    15    40 1
    29    16    41 1
    30    17    18 1
    31    17    19 1
    32    17    42 1
    33    18    43 1
    34    19    20 1
    35    19    44 1
    36    20    21 1
    37    20    29 1
    38    21    22 2
    39    21    45 1
    40    22    23 1
    41    23    24 ar
    42    23    29 ar
    43    24    25 1
    44    24    26 ar
    45    25    46 1
    46    25    47 1
    47    26    27 ar
    48    27    28 ar
    49    27    48 1
    50    28    29 ar
    51    49     1 1
@<TRIPOS>SUBSTRUCTURE
     1 5CA         1 TEMP              0 ****  ****    0 ROOT
