@<TRIPOS>MOLECULE
5CA
   49    51     1     0     0
SMALL
bcc


@<TRIPOS>ATOM
      1 N            0.0000     0.0000     0.0000 nz         1 5CA       0.084400
      2 CA           1.4690     0.0000     0.0000 c3         1 5CA      -0.129500
      3 CB           1.9790     0.0000     1.4430 c3         1 5CA       0.049700
      4 SG           1.3730     1.4810     2.2980 sh         1 5CA      -0.380900
      5 C            1.9710    -1.2310    -0.7110 c          1 5CA       0.635100
      6 O            1.2420    -2.1900    -0.8500 o          1 5CA      -0.560100
      7 N3S          3.2290    -1.2640    -1.1910 ns         1 5CA      -0.323300
      8 S            3.7810    -2.6160    -1.9710 s6         1 5CA       1.364100
      9 O1S          5.1030    -2.3060    -2.3940 o          1 5CA      -0.553800
     10 O2S          3.4190    -3.7140    -1.1450 o          1 5CA      -0.553800
     11 O5'          2.9650    -2.7710    -3.2470 os         1 5CA      -0.405500
     12 C5'          3.4420    -1.7840    -4.1640 c3         1 5CA       0.203400
     13 C4'          2.6580    -1.8850    -5.4740 c3         1 5CA       0.155100
     14 O4'          1.2870    -1.5140    -5.2540 os         1 5CA      -0.412600
     15 C3'          3.2410    -0.9060    -6.5110 c3         1 5CA       0.134100
     16 O3'          3.7050    -1.6070    -7.6660 oh         1 5CA      -0.537800
     17 C2'          2.0450     0.0110    -6.8760 c3         1 5CA       0.130100
     18 O2'          2.0190     0.2780    -8.2810 oh         1 5CA      -0.525800
     19 C1'          0.8310    -0.8550    -6.4550 c3         1 5CA       0.156800
     20 N9          -0.3350    -0.0140    -6.1730 na         1 5CA       0.210000
     21 C8          -0.6720     0.5160    -4.9620 cc         1 5CA       0.214700
     22 N7          -1.7670     1.2120    -5.0720 nd         1 5CA      -0.498100
     23 C5          -2.1990     1.1720    -6.3540 ca         1 5CA      -0.255200
     24 C6          -3.2940     1.7200    -7.0450 ca         1 5CA       0.594200
     25 N6          -4.2260     2.5030    -6.3870 nv         1 5CA      -0.470500
     26 N1          -3.4130     1.4680    -8.3450 nb         1 5CA      -0.730000
     27 C2          -2.5290     0.7220    -8.9800 ca         1 5CA       0.711900
     28 N3          -1.4880     0.1890    -8.3740 nb         1 5CA      -0.673000
     29 C4          -1.2830     0.3900    -7.0780 ca         1 5CA       0.293800
     30 H           -0.3340    -0.1910    -0.9240 hn         1 5CA       0.240133
     31 HN2         -0.3340     0.8960     0.2960 hn         1 5CA       0.240133
     32 HA           1.8300     0.8840    -0.5110 hx         1 5CA       0.105700
     33 HB1          3.0620     0.0000     1.4440 h1         1 5CA       0.074700
     34 HB2          1.6180    -0.8850     1.9540 h1         1 5CA       0.074700
     35 HG           1.9340     1.5580     3.4990 hs         1 5CA       0.262800
     36 H3S          3.8450    -0.4900    -1.0350 hn         1 5CA       0.245500
     37 H5'1         3.3050    -0.7980    -3.7360 h1         1 5CA       0.028200
     38 H5'2         4.4940    -1.9500    -4.3580 h1         1 5CA       0.028200
     39 H4'          2.7060    -2.8970    -5.8590 h1         1 5CA       0.069700
     40 H3'          4.0400    -0.3230    -6.0690 h1         1 5CA       0.008700
     41 H3T          4.6280    -1.4500    -7.7800 ho         1 5CA       0.399000
     42 H2'          2.0770     0.9300    -6.3030 h1         1 5CA       0.013700
     43 HO'2         2.3840     1.1310    -8.4460 ho         1 5CA       0.396000
     44 H1'          0.6040    -1.5850    -7.2230 h2         1 5CA       0.085700
     45 H8          -0.1110     0.3790    -4.0450 h5         1 5CA       0.001800
     46 H61         -4.1420     2.6590    -5.4020 hn         1 5CA       0.277300
     47 H62         -4.9890     2.9060    -6.8940 hn         1 5CA       0.277300
     48 H2          -2.6650     0.5420   -10.0400 h5         1 5CA       0.004100
     49 HN3         -0.3340    -0.7030     0.6300 hn         1 5CA       0.240133
@<TRIPOS>BOND
     1     1     2 1   
     2     1    30 1   
     3     1    31 1   
     4     1    49 1   
     5     2     3 1   
     6     2     5 1   
     7     2    32 1   
     8     3     4 1   
     9     3    33 1   
    10     3    34 1   
    11     4    35 1   
    12     5     6 2   
    13     5     7 1   
    14     7     8 1   
    15     7    36 1   
    16     8     9 2   
    17     8    10 2   
    18     8    11 1   
    19    11    12 1   
    20    12    13 1   
    21    12    37 1   
    22    12    38 1   
    23    13    14 1   
    24    13    15 1   
    25    13    39 1   
    26    14    19 1   
    27    15    16 1   
    28    15    17 1   
    29    15    40 1   
    30    16    41 1   
    31    17    18 1   
    32    17    19 1   
    33    17    42 1   
    34    18    43 1   
    35    19    20 1   
    36    19    44 1   
    37    20    21 1   
    38    20    29 1   
    39    21    22 2   
    40    21    45 1   
    41    22    23 1   
    42    23    24 ar  
    43    23    29 ar  
    44    24    25 1   
    45    24    26 ar  
    46    25    46 1   
    47    25    47 1   
    48    26    27 ar  
    49    27    28 ar  
    50    27    48 1   
    51    28    29 ar  
@<TRIPOS>SUBSTRUCTURE
     1 5CA         1 TEMP              0 ****  ****    0 ROOT
