@<TRIPOS>MOLECULE
molecule
   55    58     1     0     0
SMALL
bcc


@<TRIPOS>ATOM
      1 O1           0.0000     0.0000     0.0000 oh         1 5CB      -0.544800
      2 Cl2         -0.0520    -5.1950    -7.4790 cl         1 5CB      -0.101400
      3 Cl3          4.0970    -2.4420    -1.6350 cl         1 5CB      -0.175400
      4 C4          -1.1360    -3.1170    -8.8260 ca         1 5CB      -0.104000
      5 C5          -1.7300    -1.8740    -8.9110 ca         1 5CB      -0.083000
      6 C6          -0.8000    -3.6320    -7.5800 ca         1 5CB       0.021400
      7 C7          -1.9840    -1.1590    -7.7600 ca         1 5CB       0.010900
      8 C8          -1.0470    -2.9300    -6.4280 ca         1 5CB      -0.081000
      9 C9          -1.6500    -1.6500    -6.4800 ca         1 5CB      -0.083800
     10 S10         -2.7080     0.4250    -7.4240 ss         1 5CB      -0.149500
     11 C11         -2.5740     0.4180    -5.6460 cc         1 5CB      -0.028400
     12 C12         -1.9960    -0.7620    -5.3800 cd         1 5CB      -0.126400
     13 C13         -1.7010    -1.1630    -3.9570 c3         1 5CB       0.171200
     14 N14         -0.2870    -0.9190    -3.6640 ns         1 5CB      -0.598900
     15 C15          0.2070    -1.2040    -2.4420 c          1 5CB       0.648100
     16 C16          1.6620    -0.9540    -2.1410 c3         1 5CB       0.046800
     17 C17          3.3740    -1.2080    -0.5380 c3         1 5CB       0.234900
     18 N18          1.9130    -1.1870    -0.7130 n3         1 5CB      -0.628600
     19 C19          3.6890    -1.5610     0.9170 c3         1 5CB       0.158800
     20 C20          1.4280     0.0000     0.0000 c3         1 5CB       0.282000
     21 N21          2.9280    -0.6930     1.8120 n2         1 5CB      -0.704900
     22 C22          1.9250     0.0000     1.4170 c2         1 5CB       0.636200
     23 N23          1.2730     0.7820     2.3330 nu         1 5CB      -0.875200
     24 C24          1.7270     0.8120     3.7260 c3         1 5CB       0.251800
     25 C25          0.8340     1.7550     4.5340 c3         1 5CB      -0.145700
     26 C26          1.6120     2.9950     6.5580 ca         1 5CB      -0.248300
     27 C27          1.3010     1.7860     5.9670 ca         1 5CB       0.428600
     28 C28          2.0400     3.0120     7.8770 ca         1 5CB      -0.090000
     29 N29          1.4030     0.6580     6.6430 nb         1 5CB      -0.686000
     30 C30          2.1400     1.8060     8.5530 ca         1 5CB      -0.257300
     31 C31          1.8130     0.6360     7.8960 ca         1 5CB       0.427200
     32 O32         -0.5190    -1.6630    -1.5870 o          1 5CB      -0.543100
     33 H1          -0.3140     0.8850    -0.0830 ho         1 5CB       0.393000
     34 H5          -1.9950    -1.4620    -9.8770 ha         1 5CB       0.146000
     35 H8          -0.7810    -3.3600    -5.4700 ha         1 5CB       0.155000
     36 H11         -3.1740     1.0020    -4.9590 h4         1 5CB       0.194000
     37 H131        -2.3150    -0.5790    -3.2820 h1         1 5CB       0.060700
     38 H132        -1.9200    -2.2160    -3.8250 h1         1 5CB       0.060700
     39 H14          0.3030    -0.5030    -4.3580 hn         1 5CB       0.313500
     40 H161         1.9110     0.0710    -2.3900 h1         1 5CB       0.064200
     41 H162         2.2740    -1.6270    -2.7300 h1         1 5CB       0.064200
     42 H117         3.7790    -0.2300    -0.7680 h2         1 5CB       0.050700
     43 H19          3.4190    -2.5930     1.1020 h1         1 5CB       0.077700
     44 H191         4.7480    -1.4230     1.0980 h1         1 5CB       0.077700
     45 H220         1.7900     0.8890    -0.5030 h2         1 5CB       0.014700
     46 H23          0.5060     1.3570     2.0450 hn         1 5CB       0.433800
     47 H241         2.7510     1.1630     3.7640 h1         1 5CB       0.065700
     48 H242         1.6710    -0.1860     4.1450 h1         1 5CB       0.065700
     49 H251         0.8890     2.7520     4.1150 hc         1 5CB       0.055700
     50 H252        -0.1900     1.4040     4.4960 hc         1 5CB       0.055700
     51 H26          1.5220     3.9190     5.9980 ha         1 5CB       0.137000
     52 H28          2.2900     3.9460     8.3670 ha         1 5CB       0.138000
     53 H30          2.4730     1.7810     9.5840 ha         1 5CB       0.138000
     54 H31          1.8860    -0.3100     8.4190 h4         1 5CB       0.025100
     55 H4          -0.8200    -3.6290    -9.7260 ha         1 5CB       0.152000
@<TRIPOS>BOND
     1     1    20 1   
     2     1    33 1   
     3     2     6 1   
     4     3    17 1   
     5     4     5 ar  
     6     4     6 ar  
     7     4    55 1   
     8     5     7 ar  
     9     5    34 1   
    10     6     8 ar  
    11     7     9 ar  
    12     7    10 1   
    13     8     9 ar  
    14     8    35 1   
    15     9    12 1   
    16    10    11 1   
    17    11    12 2   
    18    11    36 1   
    19    12    13 1   
    20    13    14 1   
    21    13    37 1   
    22    13    38 1   
    23    14    15 1   
    24    14    39 1   
    25    15    16 1   
    26    15    32 2   
    27    16    18 1   
    28    16    40 1   
    29    16    41 1   
    30    17    18 1   
    31    17    19 1   
    32    17    42 1   
    33    18    20 1   
    34    19    21 1   
    35    19    43 1   
    36    19    44 1   
    37    20    22 1   
    38    20    45 1   
    39    21    22 2   
    40    22    23 1   
    41    23    24 1   
    42    23    46 1   
    43    24    25 1   
    44    24    47 1   
    45    24    48 1   
    46    25    27 1   
    47    25    49 1   
    48    25    50 1   
    49    26    27 ar  
    50    26    28 ar  
    51    26    51 1   
    52    27    29 ar  
    53    28    30 ar  
    54    28    52 1   
    55    29    31 ar  
    56    30    31 ar  
    57    30    53 1   
    58    31    54 1   
@<TRIPOS>SUBSTRUCTURE
     1 5CB         1 TEMP              0 ****  ****    0 ROOT
