@<TRIPOS>MOLECULE
molecule
   56    59     1     0     0
SMALL
bcc


@<TRIPOS>ATOM
      1 C01          0.0000     0.0000     0.0000 c3         1 5CC      -0.086100
      2 C02          1.5300     0.0000     0.0000 c3         1 5CC      -0.045200
      3 C03          2.0330     0.0000     1.4210 ce         1 5CC      -0.043400
      4 C04          2.1940    -1.2710     2.1440 ca         1 5CC      -0.023800
      5 C05          3.4670    -1.6960     2.5410 ca         1 5CC      -0.142000
      6 C06          3.6150    -2.8890     3.2170 ca         1 5CC      -0.097000
      7 C07          2.5100    -3.6680     3.5070 ca         1 5CC      -0.175000
      8 C08          1.2400    -3.2560     3.1180 ca         1 5CC       0.173600
      9 N09          0.1280    -4.0480     3.4130 nu         1 5CC      -0.688000
     10 C10          0.1360    -4.8710     4.5410 ca         1 5CC       0.173600
     11 C11          0.8460    -4.4940     5.6730 ca         1 5CC      -0.179000
     12 C12          0.8520    -5.3090     6.7870 ca         1 5CC      -0.098000
     13 C13          0.1520    -6.5010     6.7770 ca         1 5CC      -0.164000
     14 C14         -0.5570    -6.8810     5.6500 ca         1 5CC      -0.098000
     15 C15         -0.5710    -6.0670     4.5350 ca         1 5CC      -0.179000
     16 C16          1.0770    -2.0570     2.4420 ca         1 5CC      -0.174000
     17 C17          2.3360     1.1710     2.0330 cf         1 5CC      -0.024400
     18 C18          2.3080     2.4350     1.2660 ca         1 5CC      -0.052300
     19 C19          3.2520     2.6660     0.2650 ca         1 5CC      -0.101250
     20 C20          3.2240     3.8460    -0.4490 ca         1 5CC      -0.153750
     21 C21          2.2570     4.8030    -0.1720 ca         1 5CC       0.104100
     22 O22          2.2310     5.9640    -0.8770 oh         1 5CC      -0.523600
     23 C23          1.3140     4.5770     0.8230 ca         1 5CC      -0.153750
     24 C24          1.3340     3.3970     1.5370 ca         1 5CC      -0.101250
     25 C25          2.6930     1.1850     3.4690 ca         1 5CC      -0.052300
     26 C26          3.9760     1.5620     3.8670 ca         1 5CC      -0.101250
     27 C27          4.3050     1.5730     5.2050 ca         1 5CC      -0.153750
     28 C28          3.3620     1.2110     6.1570 ca         1 5CC       0.104100
     29 O29          3.6910     1.2240     7.4760 oh         1 5CC      -0.523600
     30 C30          2.0830     0.8350     5.7660 ca         1 5CC      -0.153750
     31 C31          1.7450     0.8260     4.4300 ca         1 5CC      -0.101250
     32 H1          -0.3610     0.6480    -0.7890 hc         1 5CC       0.035700
     33 H2          -0.3610    -1.0080    -0.1670 hc         1 5CC       0.035700
     34 H3          -0.3610     0.3600     0.9560 hc         1 5CC       0.035700
     35 H4           1.8910     0.8840    -0.5110 hc         1 5CC       0.055200
     36 H5           1.8910    -0.8850    -0.5110 hc         1 5CC       0.055200
     37 H7           4.3360    -1.0890     2.3160 ha         1 5CC       0.135000
     38 H8           4.6010    -3.2160     3.5240 ha         1 5CC       0.133000
     39 H9           2.6340    -4.6040     4.0390 ha         1 5CC       0.145000
     40 H10         -0.6700    -4.0350     2.8090 hn         1 5CC       0.446800
     41 H11          1.3950    -3.5600     5.6820 ha         1 5CC       0.138500
     42 H12          1.4060    -5.0150     7.6710 ha         1 5CC       0.130500
     43 H13          0.1600    -7.1410     7.6510 ha         1 5CC       0.129000
     44 H14         -1.1060    -7.8150     5.6460 ha         1 5CC       0.130500
     45 H15         -1.1260    -6.3640     3.6530 ha         1 5CC       0.138500
     46 H16          0.0890    -1.7330     2.1380 ha         1 5CC       0.134000
     47 H18          4.0070     1.9200     0.0490 ha         1 5CC       0.138000
     48 H19          3.9570     4.0260    -1.2260 ha         1 5CC       0.140750
     49 H20          1.6950     5.8550    -1.6450 ho         1 5CC       0.418500
     50 H21          0.5600     5.3250     1.0340 ha         1 5CC       0.140750
     51 H22          0.5990     3.2210     2.3130 ha         1 5CC       0.138000
     52 H23          4.7130     1.8450     3.1250 ha         1 5CC       0.138000
     53 H24          5.3010     1.8660     5.5150 ha         1 5CC       0.140750
     54 H25          3.5290     2.0820     7.8320 ho         1 5CC       0.418500
     55 H26          1.3500     0.5550     6.5120 ha         1 5CC       0.140750
     56 H27          0.7480     0.5330     4.1250 ha         1 5CC       0.138000
@<TRIPOS>BOND
     1    29    28 1   
     2    28    27 ar  
     3    28    30 ar  
     4    27    26 ar  
     5    30    31 ar  
     6    26    25 ar  
     7    31    25 ar  
     8    25    17 1   
     9    19    20 ar  
    10    19    18 ar  
    11    20    21 ar  
    12    17    18 1   
    13    17     3 2   
    14    18    24 ar  
    15    21    22 1   
    16    21    23 ar  
    17    24    23 ar  
    18     1     2 1   
    19     3     2 1   
    20     3     4 1   
    21     4    16 ar  
    22     4     5 ar  
    23    16     8 ar  
    24     5     6 ar  
    25     8     9 1   
    26     8     7 ar  
    27     9    10 1   
    28     6     7 ar  
    29    10    15 ar  
    30    10    11 ar  
    31    15    14 ar  
    32    11    12 ar  
    33    14    13 ar  
    34    12    13 ar  
    35     1    32 1   
    36     1    33 1   
    37     1    34 1   
    38     2    35 1   
    39     2    36 1   
    40     5    37 1   
    41     6    38 1   
    42     7    39 1   
    43     9    40 1   
    44    11    41 1   
    45    12    42 1   
    46    13    43 1   
    47    14    44 1   
    48    15    45 1   
    49    16    46 1   
    50    19    47 1   
    51    20    48 1   
    52    22    49 1   
    53    23    50 1   
    54    24    51 1   
    55    26    52 1   
    56    27    53 1   
    57    29    54 1   
    58    30    55 1   
    59    31    56 1   
@<TRIPOS>SUBSTRUCTURE
     1 5CC         1 TEMP              0 ****  ****    0 ROOT
