@<TRIPOS>MOLECULE
5CD
   31    33     1     0     0
SMALL
bcc


@<TRIPOS>ATOM
      1 N9           0.0000     0.0000     0.0000 na         1 5CD       0.201000
      2 C8           1.3630     0.0000     0.0000 cc         1 5CD       0.254700
      3 N7           1.8080     0.0000     1.2220 nd         1 5CD      -0.494100
      4 C5           0.7610     0.0070     2.0840 ca         1 5CD      -0.230200
      5 C4          -0.4110     0.0010     1.3090 ca         1 5CD       0.265800
      6 N3          -1.5900     0.0010     1.9220 nb         1 5CD      -0.660000
      7 C2          -1.6630     0.0010     3.2360 ca         1 5CD       0.679900
      8 N1          -0.5890     0.0010     4.0060 nb         1 5CD      -0.725000
      9 C6           0.6320     0.0000     3.4820 ca         1 5CD       0.590200
     10 N6           1.7520     0.0000     4.2960 nv         1 5CD      -0.514500
     11 O2'         -2.5530     1.7720    -1.0600 oh         1 5CD      -0.538800
     12 C2'         -1.2550     1.4450    -1.5630 c3         1 5CD       0.117100
     13 C3'         -1.2600     1.4350    -3.1110 c3         1 5CD       0.128100
     14 O3'         -2.5620     1.7510    -3.6100 oh         1 5CD      -0.549800
     15 C4'         -0.8780    -0.0160    -3.4770 c3         1 5CD       0.158100
     16 C5'          0.0140    -0.0370    -4.7200 c3         1 5CD       0.066000
     17 Cl           0.3980    -1.7440    -5.1560 cl         1 5CD      -0.112400
     18 O4'         -0.1530    -0.5080    -2.3280 os         1 5CD      -0.391600
     19 C1'         -0.8670     0.0000    -1.1810 c3         1 5CD       0.156800
     20 H8           1.9840     0.0000    -0.8870 h5         1 5CD       0.039800
     21 H2          -2.6390     0.0020     3.7040 h5         1 5CD      -0.003900
     22 H6N1         1.7300    -0.4770     5.1760 hn         1 5CD       0.276300
     23 H6N2         2.5680     0.5120     4.0250 hn         1 5CD       0.276300
     24 H2'         -2.5860     2.6910    -0.8490 ho         1 5CD       0.392000
     25 HA          -0.5130     2.1440    -1.1950 h1         1 5CD       0.019700
     26 H3'         -0.5210     2.1280    -3.4950 h1         1 5CD       0.014700
     27 HB          -2.5720     2.6420    -3.9180 ho         1 5CD       0.390000
     28 H4'         -1.7710    -0.6090    -3.6370 h1         1 5CD       0.055700
     29 H5'1        -0.5040     0.4380    -5.5440 h1         1 5CD       0.032200
     30 H5'2         0.9330     0.4980    -4.5140 h1         1 5CD       0.032200
     31 H1'         -1.7570    -0.5910    -1.0020 h2         1 5CD       0.072700
@<TRIPOS>BOND
     1     1     2 1   
     2     1     5 1   
     3     1    19 1   
     4     2     3 2   
     5     2    20 1   
     6     3     4 1   
     7     4     5 ar  
     8     4     9 ar  
     9     5     6 ar  
    10     6     7 ar  
    11     7     8 ar  
    12     7    21 1   
    13     8     9 ar  
    14     9    10 1   
    15    10    22 1   
    16    10    23 1   
    17    11    12 1   
    18    11    24 1   
    19    12    13 1   
    20    12    19 1   
    21    12    25 1   
    22    13    14 1   
    23    13    15 1   
    24    13    26 1   
    25    14    27 1   
    26    15    16 1   
    27    15    18 1   
    28    15    28 1   
    29    16    17 1   
    30    16    29 1   
    31    16    30 1   
    32    18    19 1   
    33    19    31 1   
@<TRIPOS>SUBSTRUCTURE
     1 5CD         1 TEMP              0 ****  ****    0 ROOT
