@<TRIPOS>MOLECULE
molecule
   43    45     1     0     0
SMALL
bcc


@<TRIPOS>ATOM
      1 C01          0.0000     0.0000     0.0000 ca         1 5CE      -0.123000
      2 C02          1.3870     0.0000     0.0000 ca         1 5CE       0.095100
      3 C03          2.0780     0.0000     1.2030 ca         1 5CE      -0.107000
      4 C04          1.3840     0.0020     2.3970 ca         1 5CE      -0.168300
      5 C05          0.0010     0.0020     2.3940 ca         1 5CE      -0.032300
      6 C06         -0.6900     0.0020     1.1960 ca         1 5CE      -0.119000
      7 C07         -0.7530     0.0030     3.6990 c3         1 5CE      -0.041400
      8 C08         -1.6460    -1.2350     3.7790 c3         1 5CE      -0.061400
      9 C09         -2.4460    -1.2590     5.0590 c3         1 5CE      -0.060700
     10 C10         -3.2340     0.0370     5.3130 c3         1 5CE      -0.055000
     11 C11         -2.3350     1.2630     5.1400 c3         1 5CE      -0.071400
     12 C12         -1.6470     1.2450     3.7770 c3         1 5CE      -0.068400
     13 C13         -1.5580    -1.3910     6.3100 c3         1 5CE      -0.077400
     14 C14         -2.4870    -0.9410     7.4610 c3         1 5CE      -0.110400
     15 C15         -3.5750    -0.0530     6.8250 c3         1 5CE       0.146100
     16 C16         -4.4860     0.1230     4.4380 c3         1 5CE      -0.065100
     17 O01         -4.8610    -0.6490     7.0040 oh         1 5CE      -0.602800
     18 O02          2.0680    -0.0020    -1.1770 oh         1 5CE      -0.516100
     19 C17          2.1340     0.0020     3.7040 c3         1 5CE       0.675200
     20 F01          1.7950     1.1450     4.4360 f          1 5CE      -0.222633
     21 F02          1.7930    -1.1390     4.4380 f          1 5CE      -0.222633
     22 F03          3.5110     0.0020     3.4520 f          1 5CE      -0.222633
     23 H1          -0.5420    -0.0000    -0.9380 ha         1 5CE       0.146000
     24 H2           3.1610    -0.0000     1.2050 ha         1 5CE       0.159000
     25 H3          -1.7730     0.0020     1.1960 ha         1 5CE       0.145000
     26 H4          -0.0570     0.0030     4.5290 hc         1 5CE       0.072700
     27 H5          -2.3270    -1.2340     2.9370 hc         1 5CE       0.047700
     28 H6          -1.0240    -2.1210     3.7360 hc         1 5CE       0.047700
     29 H7          -3.1370    -2.0920     5.0270 hc         1 5CE       0.064700
     30 H8          -2.9370     2.1600     5.2210 hc         1 5CE       0.045200
     31 H9          -1.5810     1.2630     5.9180 hc         1 5CE       0.045200
     32 H10         -2.3950     1.2050     2.9940 hc         1 5CE       0.047200
     33 H11         -1.0420     2.1360     3.6650 hc         1 5CE       0.047200
     34 H12         -1.2510    -2.4200     6.4500 hc         1 5CE       0.048700
     35 H13         -0.6990    -0.7350     6.2370 hc         1 5CE       0.048700
     36 H14         -2.9420    -1.8050     7.9280 hc         1 5CE       0.050700
     37 H15         -1.9240    -0.3710     8.1890 hc         1 5CE       0.050700
     38 H16         -3.5520     0.9350     7.2690 h1         1 5CE       0.032700
     39 H17         -5.1040     0.9490     4.7720 hc         1 5CE       0.037700
     40 H18         -5.0460    -0.8010     4.5160 hc         1 5CE       0.037700
     41 H19         -4.1960     0.2830     3.4070 hc         1 5CE       0.037700
     42 H20         -5.2590    -0.3080     7.7880 ho         1 5CE       0.399000
     43 H21          2.2230     0.8860    -1.4520 ho         1 5CE       0.421000
@<TRIPOS>BOND
     1     1     6 ar
     2     1     2 ar
     3    18     2 1
     4     6     5 ar
     5     2     3 ar
     6    16    10 1
     7    12     7 1
     8    12    11 1
     9     5     7 1
    10     5     4 ar
    11     3     4 ar
    12     8     7 1
    13     8     9 1
    14    10    11 1
    15    10     9 1
    16    10    15 1
    17     4    19 1
    18     9    13 1
    19    17    15 1
    20    15    14 1
    21    19    22 1
    22    19    20 1
    23    19    21 1
    24    13    14 1
    25     1    23 1
    26     3    24 1
    27     6    25 1
    28     7    26 1
    29     8    27 1
    30     8    28 1
    31     9    29 1
    32    11    30 1
    33    11    31 1
    34    12    32 1
    35    12    33 1
    36    13    34 1
    37    13    35 1
    38    14    36 1
    39    14    37 1
    40    15    38 1
    41    16    39 1
    42    16    40 1
    43    16    41 1
    44    17    42 1
    45    18    43 1
@<TRIPOS>SUBSTRUCTURE
     1 5CE         1 TEMP              0 ****  ****    0 ROOT
