@<TRIPOS>MOLECULE
molecule
   39    41     1     0     0
SMALL
bcc


@<TRIPOS>ATOM
      1 N9           0.0000     0.0000     0.0000 nb         1 5CH      -0.673000
      2 C2          -2.5630     0.9200     5.0010 ca         1 5CH      -0.026000
      3 C4          -0.8180     0.0000     3.6320 cp         1 5CH       0.004000
      4 C5          -0.5240    -0.9240     4.6330 ca         1 5CH      -0.139000
      5 C6          -1.2500    -0.9190     5.8070 ca         1 5CH      -0.026000
      6 O24         -3.6530     1.3380     7.6190 o          1 5CH      -0.617800
      7 O23         -2.2990    -0.5590     8.4500 o          1 5CH      -0.617800
      8 C22         -4.5730    -1.1270     7.1740 c3         1 5CH      -0.224300
      9 C1          -2.2670     0.0000     5.9910 ca         1 5CH      -0.292500
     10 C3          -1.8450     0.9240     3.8220 ca         1 5CH      -0.139000
     11 C7          -0.0420    -0.0000     2.3690 cp         1 5CH      -0.155300
     12 C12          1.3540     0.0010     2.3930 ca         1 5CH      -0.072000
     13 C11          2.0340     0.0000     1.1860 ca         1 5CH      -0.102900
     14 Cl20         3.7700    -0.0000     1.1590 cl         1 5CH      -0.088400
     15 C10          1.3170     0.0000     0.0000 ca         1 5CH       0.438200
     16 C8          -0.6980    -0.0000     1.1280 cq         1 5CH       0.499800
     17 C13         -2.1790     0.0000     1.0770 cq         1 5CH      -0.290800
     18 C18         -2.8560     0.6910     0.0670 ca         1 5CH      -0.050000
     19 C17         -4.2390     0.6590     0.0640 ca         1 5CH      -0.261300
     20 C16         -4.9020    -0.0460     1.0520 ca         1 5CH       0.439600
     21 C19         -6.4090    -0.0830     1.0530 c3         1 5CH      -0.144400
     22 N15         -4.2360    -0.6900     1.9920 nb         1 5CH      -0.700000
     23 C14         -2.9200    -0.6940     2.0330 ca         1 5CH       0.445200
     24 H2          -3.3610     1.6370     5.1500 ha         1 5CH       0.155500
     25 H5           0.2730    -1.6440     4.4910 ha         1 5CH       0.146500
     26 H6          -1.0220    -1.6370     6.5860 ha         1 5CH       0.155500
     27 H22         -5.2430    -0.6810     6.4480 h1         1 5CH       0.100033
     28 H22A        -4.2050    -2.0720     6.7930 h1         1 5CH       0.100033
     29 H22B        -5.1070    -1.2960     8.1010 h1         1 5CH       0.100033
     30 H3          -2.0770     1.6450     3.0480 ha         1 5CH       0.146500
     31 H12          1.8800     0.2360     3.3100 ha         1 5CH       0.162000
     32 H10          1.8490    -0.0000    -0.9440 h4         1 5CH       0.040100
     33 H18         -2.3110     1.2360    -0.6940 ha         1 5CH       0.155000
     34 H17         -4.7970     1.1830    -0.7030 ha         1 5CH       0.143000
     35 H19         -6.7940     0.9080     1.2620 hc         1 5CH       0.054700
     36 H19A        -6.7520    -0.7720     1.8150 hc         1 5CH       0.054700
     37 H19B        -6.7630    -0.4110     0.0830 hc         1 5CH       0.054700
     38 H14         -2.4090    -1.2340     2.8210 h4         1 5CH       0.036100
     39 S21         -3.1880     0.0010     7.4920 sy         1 5CH       1.190300
@<TRIPOS>BOND
     1     1    15 ar  
     2     1    16 2   
     3     2     9 ar  
     4     2    10 ar  
     5     3     4 ar  
     6     3    10 ar  
     7     3    11 1   
     8     4     5 ar  
     9     5     9 ar  
    10     6    39 2   
    11    39     7 2   
    12    39     8 1   
    13    39     9 1   
    14    11    12 ar  
    15    11    16 1   
    16    12    13 ar  
    17    13    14 1   
    18    13    15 ar  
    19    16    17 1   
    20    17    18 1   
    21    17    23 2   
    22    18    19 ar  
    23    19    20 ar  
    24    20    21 1   
    25    20    22 ar  
    26    22    23 ar  
    27     2    24 1   
    28     4    25 1   
    29     5    26 1   
    30     8    27 1   
    31     8    28 1   
    32     8    29 1   
    33    10    30 1   
    34    12    31 1   
    35    15    32 1   
    36    18    33 1   
    37    19    34 1   
    38    21    35 1   
    39    21    36 1   
    40    21    37 1   
    41    23    38 1   
@<TRIPOS>SUBSTRUCTURE
     1 5CH         1 TEMP              0 ****  ****    0 ROOT
