@<TRIPOS>MOLECULE
5CH
   39    39     1     0     0
SMALL
bcc


@<TRIPOS>ATOM
      1 N9          0.0710    0.5420   -0.2960 n1        1 5CH     -1.118500
      2 C2         -1.7130    1.3990    4.7500 c2        1 5CH     -0.038000
      3 C4         -0.0980    0.1140    3.4150 cc        1 5CH     -0.086000
      4 C5          0.5390   -0.4940    4.4320 c2        1 5CH     -0.132000
      5 C6         -2.1170   -0.3380    6.4690 c1        1 5CH      0.052000
      6 O24        -5.2960   -0.1290    5.0000 o         1 5CH     -0.744300
      7 O23        -5.5810    0.3250    7.3060 o         1 5CH     -0.744300
      8 C22        -5.2550   -2.0840    6.6120 c3        1 5CH     -0.317300
      9 C1         -3.3600   -0.3980    6.4300 c1        1 5CH     -1.038200
     10 C3         -1.4160    0.7210    3.6220 cc        1 5CH     -0.133200
     11 C7          0.4490    0.2020    2.0630 cc        1 5CH      0.034000
     12 C12         1.8990    0.1370    1.9520 ce        1 5CH     -0.155000
     13 C11         2.5550   -0.6360    1.0770 c2        1 5CH     -0.032600
     14 CL20        4.2400   -0.6940    1.0000 cl        1 5CH     -0.088400
     15 C10         0.4720    0.7140   -1.3970 c1        1 5CH      0.480800
     16 C8         -0.3940    0.3720    0.9910 cd        1 5CH      0.558500
     17 C13        -1.8510    0.3790    1.1930 ca        1 5CH     -0.079800
     18 C18        -2.7670    0.2190    0.1430 ca        1 5CH     -0.022000
     19 C17        -4.1350    0.1970    0.4090 ca        1 5CH     -0.190000
     20 C16        -4.6010    0.3150    1.7300 ca        1 5CH      0.060400
     21 C19        -6.0600    0.2840    2.0310 c3        1 5CH     -0.102800
     22 N15        -3.7000    0.4690    2.7500 na        1 5CH     -0.088100
     23 C14        -2.3520    0.5230    2.5170 ca        1 5CH      0.104900
     24 H2         -0.9550    1.5570    5.5350 ha        1 5CH      0.151500
     25 H5          0.0670   -0.5800    5.4310 ha        1 5CH      0.154000
     26 H6          1.5350   -0.9420    4.3170 ha        1 5CH      0.154000
     27 H22        -4.7940   -2.7530    5.8490 h1        1 5CH      0.094700
     28 H22A       -6.3580   -2.2460    6.5730 h1        1 5CH      0.094700
     29 H22B       -4.9080   -2.4450    7.6100 h1        1 5CH      0.094700
     30 H3         -2.6980    1.8430    4.9520 ha        1 5CH      0.151500
     31 H12         2.4410    0.7690    2.6800 ha        1 5CH      0.160000
     32 H10         2.0720   -1.3060    0.3520 h4        1 5CH      0.158000
     33 H18        -2.4220    0.1040   -0.8980 ha        1 5CH      0.170000
     34 H17        -4.8650    0.0780   -0.4060 ha        1 5CH      0.175000
     35 H19        -6.4760    1.3190    1.9320 hc        1 5CH      0.098033
     36 H19A       -6.2720   -0.0780    3.0760 hc        1 5CH      0.098033
     37 H19B       -6.5770   -0.3870    1.3020 hc        1 5CH      0.098033
     38 H14        -4.0560    0.4790    3.7200 hn        1 5CH      0.398700
     39 S21        -4.8680   -0.4380    6.3590 s6        1 5CH      1.568000
@<TRIPOS>BOND
     1    1   15 3   
     2    1   16 1   
     3    2   10 2   
     4    2   24 1   
     5    2   30 1   
     6    3    4 2   
     7    3   10 1   
     8    3   11 1   
     9    4   25 1   
    10    4   26 1   
    11    5    9 3   
    12    6   39 2   
    13    7   39 2   
    14    8   27 1   
    15    8   28 1   
    16    8   29 1   
    17    8   39 1   
    18    9   39 1   
    19   10   23 1   
    20   11   12 1   
    21   11   16 2   
    22   12   13 2   
    23   12   31 1   
    24   13   14 1   
    25   13   32 1   
    26   16   17 1   
    27   17   18 ar  
    28   17   23 ar  
    29   18   19 ar  
    30   18   33 1   
    31   19   20 ar  
    32   19   34 1   
    33   20   21 1   
    34   20   22 2   
    35   21   35 1   
    36   21   36 1   
    37   21   37 1   
    38   22   23 1   
    39   22   38 1   
@<TRIPOS>SUBSTRUCTURE
     1 5CH         1 TEMP              0 ****  ****    0 ROOT
