@<TRIPOS>MOLECULE
5CI
   49    51     1     0     0
SMALL
bcc


@<TRIPOS>ATOM
      1 O41          0.0000     0.0000     0.0000 o          1 5CI      -0.917800
      2 C51          1.3430     0.0000     0.0000 c          1 5CI       0.993100
      3 O31          1.9470     0.0000     1.0470 o          1 5CI      -0.917800
      4 C41          2.0960    -0.0010    -1.3050 c3         1 5CI      -0.172400
      5 C31          3.5930     0.1570    -1.0290 c3         1 5CI       0.159800
      6 C21          3.8520     1.5190    -0.3810 c3         1 5CI      -0.172400
      7 C11          3.4560     2.6130    -1.3380 c          1 5CI       0.993100
      8 O21          2.9830     2.3330    -2.4140 o          1 5CI      -0.917800
      9 O11          3.6300     3.8990    -0.9950 o          1 5CI      -0.917800
     10 O71          4.0270    -0.8810    -0.1470 oh         1 5CI      -0.603800
     11 C61          4.3550     0.0650    -2.3260 c          1 5CI       0.578100
     12 O51          3.7900     0.2790    -3.3780 o          1 5CI      -0.605100
     13 N5'          5.6640    -0.2550    -2.3170 ns         1 5CI      -0.248900
     14 C5'          6.4310    -0.2370    -3.5660 c3         1 5CI       0.054000
     15 C4'          7.8800    -0.6370    -3.2800 c3         1 5CI       0.144100
     16 O4'          7.9360    -2.0110    -2.8650 os         1 5CI      -0.376600
     17 C3'          8.7220    -0.5080    -4.5630 c3         1 5CI       0.136100
     18 O3'          9.7830     0.4320    -4.3740 oh         1 5CI      -0.559800
     19 C2'          9.2890    -1.9300    -4.7900 c3         1 5CI       0.119100
     20 O2'         10.6520    -1.8750    -5.2130 oh         1 5CI      -0.549800
     21 C1'          9.1730    -2.5560    -3.3730 c3         1 5CI       0.133800
     22 N9           9.1010    -4.0160    -3.4570 na         1 5CI       0.259000
     23 C8           8.0210    -4.7490    -3.8540 cc         1 5CI       0.182800
     24 Br8          6.3560    -4.0270    -4.3850 br         1 5CI       0.058700
     25 N7           8.3070    -6.0190    -3.8150 nd         1 5CI      -0.478100
     26 C5           9.5830    -6.1810    -3.3920 ca         1 5CI      -0.242200
     27 C4          10.1080    -4.8990    -3.1560 ca         1 5CI       0.271800
     28 N3          11.3610    -4.7810    -2.7320 nb         1 5CI      -0.661000
     29 C2          12.1040    -5.8490    -2.5280 ca         1 5CI       0.675900
     30 N1          11.6540    -7.0740    -2.7310 nb         1 5CI      -0.759000
     31 C6          10.4140    -7.2900    -3.1610 ca         1 5CI       0.589200
     32 N6           9.9530    -8.5770    -3.3740 nv         1 5CI      -0.494500
     33 H2           1.9210    -0.9370    -1.8220 hc         1 5CI       0.042450
     34 H3           1.7540     0.8210    -1.9210 hc         1 5CI       0.042450
     35 H4           3.2660     1.6040     0.5270 hc         1 5CI       0.042450
     36 H5           4.9040     1.6110    -0.1420 hc         1 5CI       0.042450
     37 H7           4.5620    -0.5100     0.5350 ho         1 5CI       0.380000
     38 H8           6.1180    -0.4810    -1.4540 hn         1 5CI       0.180500
     39 H9           5.9940    -0.9380    -4.2670 h1         1 5CI       0.021700
     40 H10          6.4070     0.7590    -3.9900 h1         1 5CI       0.021700
     41 H11          8.2950    -0.0040    -2.5040 h1         1 5CI       0.048700
     42 H12          8.0950    -0.2160    -5.3970 h1         1 5CI       0.023700
     43 H13          9.6940     1.1360    -4.9950 ho         1 5CI       0.389000
     44 H14          8.6790    -2.4760    -5.5000 h1         1 5CI       0.024700
     45 H15         10.7080    -2.1060    -6.1260 ho         1 5CI       0.381000
     46 H16         10.0050    -2.2440    -2.7530 h2         1 5CI       0.073700
     47 H17         13.1210    -5.7180    -2.1770 h5         1 5CI      -0.010900
     48 H18         10.5570    -9.3590    -3.2130 hn         1 5CI       0.272800
     49 H19          9.0160    -8.7270    -3.6920 hn         1 5CI       0.272800
@<TRIPOS>BOND
     1     1     2 1   
     2     2     3 1   
     3     2     4 1   
     4     4     5 1   
     5     4    33 1   
     6     4    34 1   
     7     5     6 1   
     8     5    10 1   
     9     5    11 1   
    10     6     7 1   
    11     6    35 1   
    12     6    36 1   
    13     7     8 1   
    14     7     9 1   
    15    10    37 1   
    16    11    12 2   
    17    11    13 1   
    18    13    14 1   
    19    13    38 1   
    20    14    15 1   
    21    14    39 1   
    22    14    40 1   
    23    15    16 1   
    24    15    17 1   
    25    15    41 1   
    26    16    21 1   
    27    17    18 1   
    28    17    19 1   
    29    17    42 1   
    30    18    43 1   
    31    19    20 1   
    32    19    21 1   
    33    19    44 1   
    34    20    45 1   
    35    21    22 1   
    36    21    46 1   
    37    22    23 1   
    38    22    27 1   
    39    23    24 1   
    40    23    25 2   
    41    25    26 1   
    42    26    27 ar  
    43    26    31 ar  
    44    27    28 ar  
    45    28    29 ar  
    46    29    30 ar  
    47    29    47 1   
    48    30    31 ar  
    49    31    32 1   
    50    32    48 1   
    51    32    49 1   
@<TRIPOS>SUBSTRUCTURE
     1 5CI         1 TEMP              0 ****  ****    0 ROOT
