@<TRIPOS>MOLECULE
molecule
   40    42     1     0     0
SMALL
bcc


@<TRIPOS>ATOM
      1 C            1.5300     0.0000     0.0000 c3         1 5CJ      -0.066100
      2 O            0.3400     1.7310    -1.6930 oh         1 5CJ      -0.602800
      3 C01          0.3380    -5.5560     2.7800 ca         1 5CJ       0.125900
      4 C02         -0.8030    -6.2190     3.2130 ca         1 5CJ       0.046100
      5 C03          0.2300    -4.3250     2.1590 ca         1 5CJ      -0.148000
      6 C04         -1.1310    -2.4150     1.2870 c3         1 5CJ      -0.028400
      7 C05         -0.5180    -2.4940    -0.1120 c3         1 5CJ      -0.062400
      8 C06         -2.0310    -0.7130    -1.1020 c3         1 5CJ      -0.078400
      9 C07          0.0000     0.0000     0.0000 c3         1 5CJ      -0.056000
     10 C08         -1.8880     0.8000    -1.3850 c3         1 5CJ      -0.110400
     11 C09         -2.0510    -5.6480     3.0160 ca         1 5CJ       0.100900
     12 C10         -2.1560    -4.4160     2.3890 ca         1 5CJ       0.092900
     13 O01         -0.6960    -7.4280     3.8280 oh         1 5CJ      -0.491100
     14 C11         -0.5690     0.0000     1.4210 c3         1 5CJ      -0.071400
     15 C12         -1.0150    -3.7540     1.9690 ca         1 5CJ      -0.070300
     16 C13         -0.5840    -1.1630    -0.8210 c3         1 5CJ      -0.060700
     17 C14         -0.3640    -1.3570     2.0890 c3         1 5CJ      -0.070400
     18 C15         -0.5800     1.2530    -0.7110 c3         1 5CJ       0.146100
     19 F            1.5560    -6.1120     2.9710 f          1 5CJ      -0.121900
     20 H1           1.8910    -0.0630    -1.0190 hc         1 5CJ       0.039033
     21 H2           1.8910    -0.8510     0.5640 hc         1 5CJ       0.039033
     22 H3           1.8910     0.9140     0.4550 hc         1 5CJ       0.039033
     23 H4           0.2550     2.6670    -1.7740 ho         1 5CJ       0.400000
     24 H5           1.1200    -3.8090     1.8210 ha         1 5CJ       0.162000
     25 H6          -2.1730    -2.1280     1.2110 hc         1 5CJ       0.075700
     26 H7          -1.0600    -3.2300    -0.6930 hc         1 5CJ       0.047700
     27 H8           0.5180    -2.7970    -0.0250 hc         1 5CJ       0.047700
     28 H9          -2.4260    -1.2270    -1.9690 hc         1 5CJ       0.047700
     29 H10         -2.6560    -0.8800    -0.2330 hc         1 5CJ       0.047700
     30 H11         -1.8320     0.9720    -2.4540 hc         1 5CJ       0.051200
     31 H12         -2.7290     1.3360    -0.9610 hc         1 5CJ       0.051200
     32 H13         -0.6450    -7.3030     4.7610 ho         1 5CJ       0.426000
     33 H14         -1.6290     0.2180     1.3790 hc         1 5CJ       0.045700
     34 H15         -0.0660     0.7620     2.0050 hc         1 5CJ       0.045700
     35 H16         -0.0490    -1.2360    -1.7600 hc         1 5CJ       0.066700
     36 H17          0.6910    -1.6020     2.0970 hc         1 5CJ       0.047200
     37 H18         -0.7440    -1.3240     3.1030 hc         1 5CJ       0.047200
     38 H19         -0.7890     2.0270     0.0180 h1         1 5CJ       0.033700
     39 F02         -3.3710    -3.8570     2.1970 f          1 5CJ      -0.121900
     40 F01         -3.1630    -6.2890     3.4360 f          1 5CJ      -0.112900
@<TRIPOS>BOND
     1    10    18 1   
     2    10     8 1   
     3     2    18 1   
     4    18     9 1   
     5     8    16 1   
     6    16     9 1   
     7    16     7 1   
     8     9     1 1   
     9     9    14 1   
    10    14    17 1   
    11     7     6 1   
    12    17     6 1   
    13     6    15 1   
    14    39    12 1   
    15    15    12 ar  
    16    15     5 ar  
    17    12    11 ar  
    18     5     3 ar  
    19    11    40 1   
    20    11     4 ar  
    21     3     4 ar  
    22     3    19 1   
    23     4    13 1   
    24     1    20 1   
    25     1    21 1   
    26     1    22 1   
    27     2    23 1   
    28     5    24 1   
    29     6    25 1   
    30     7    26 1   
    31     7    27 1   
    32     8    28 1   
    33     8    29 1   
    34    10    30 1   
    35    10    31 1   
    36    13    32 1   
    37    14    33 1   
    38    14    34 1   
    39    16    35 1   
    40    17    36 1   
    41    17    37 1   
    42    18    38 1   
@<TRIPOS>SUBSTRUCTURE
     1 5CJ         1 TEMP              0 ****  ****    0 ROOT
