@<TRIPOS>MOLECULE
5CL
   12    12     1     0     0
SMALL
bcc


@<TRIPOS>ATOM
      1 C1         -0.0100    0.0010   -0.0040 ca        1 5CL      0.028400
      2 C2          1.3860   -0.0010   -0.0050 ca        1 5CL     -0.109000
      3 C3          2.0840   -0.0010    1.2040 ca        1 5CL      0.028400
      4 C4          1.3910   -0.0000    2.4250 ca        1 5CL      0.020400
      5 C5         -0.0150    0.0010    2.4230 ca        1 5CL      0.028400
      6 C6         -0.7200    0.0010    1.2080 ca        1 5CL      0.020400
      7 Cl1         2.2410   -0.0010    3.8870 cl        1 5CL     -0.031400
      8 Cl2        -0.8600    0.0020    3.8890 cl        1 5CL     -0.031400
      9 Cl3        -2.4110    0.0030    1.2030 cl        1 5CL     -0.031400
     10 Cl4         3.7780   -0.0020    1.1650 cl        1 5CL     -0.047400
     11 Cl5        -0.8240    0.0010   -1.4900 cl        1 5CL     -0.047400
     12 H2          1.9370   -0.0010   -0.9600 ha        1 5CL      0.172000
@<TRIPOS>BOND
     1    1    2 ar  
     2    1    6 ar  
     3    1   11 1   
     4    2    3 ar  
     5    2   12 1   
     6    3    4 ar  
     7    3   10 1   
     8    4    5 ar  
     9    4    7 1   
    10    5    6 ar  
    11    5    8 1   
    12    6    9 1   
@<TRIPOS>SUBSTRUCTURE
     1 5CL         1 TEMP              0 ****  ****    0 ROOT
