@<TRIPOS>MOLECULE
molecule
   12    12     1     0     0
SMALL
bcc


@<TRIPOS>ATOM
      1 C1           0.0000     0.0000     0.0000 ca         1 5CL       0.041400
      2 C2           1.3830     0.0000     0.0000 ca         1 5CL      -0.102000
      3 C3           2.0750     0.0000     1.1970 ca         1 5CL       0.041400
      4 C4           1.3850    -0.0030     2.3970 ca         1 5CL       0.034400
      5 C5          -0.0000     0.0030     2.3980 ca         1 5CL       0.042400
      6 C6          -0.6920     0.0020     1.1980 ca         1 5CL       0.034400
      7 Cl1          2.2530    -0.0020     3.8990 cl         1 5CL      -0.048900
      8 Cl2         -0.8670     0.0040     3.9020 cl         1 5CL      -0.045400
      9 Cl3         -2.4280     0.0010     1.1990 cl         1 5CL      -0.048900
     10 Cl4          3.8110    -0.0010     1.1960 cl         1 5CL      -0.060400
     11 Cl5         -0.8680    -0.0010    -1.5030 cl         1 5CL      -0.060400
     12 H2           1.9240     0.0000    -0.9380 ha         1 5CL       0.171000
@<TRIPOS>BOND
     1     1     2 ar  
     2     1     6 ar  
     3     1    11 1   
     4     2     3 ar  
     5     2    12 1   
     6     3     4 ar  
     7     3    10 1   
     8     4     5 ar  
     9     4     7 1   
    10     5     6 ar  
    11     5     8 1   
    12     6     9 1   
@<TRIPOS>SUBSTRUCTURE
     1 5CL         1 TEMP              0 ****  ****    0 ROOT
