@<TRIPOS>MOLECULE
5CN
   46    46     1     0     0
SMALL
bcc


@<TRIPOS>ATOM
      1 C1         -0.1220   -1.1330    0.3380 ca        1 5CN      0.078600
      2 C2          1.2740   -0.9630    0.3520 ca        1 5CN     -0.140000
      3 C3          1.9170   -0.3400    1.4140 ca        1 5CN     -0.122000
      4 C7          0.5080    3.7160   -3.3620 c2        1 5CN     -0.164200
      5 C8          1.1910    3.4620   -2.2480 c2        1 5CN     -0.227000
      6 C9         -0.3370   -1.6480   -2.0540 c2        1 5CN      0.037000
      7 C10         0.3910   -0.6500   -2.5780 c2        1 5CN     -0.302000
      8 C11        -0.3500    2.7210   -4.0510 c3        1 5CN     -0.058200
      9 C12        -0.1550    2.7520   -5.5480 c3        1 5CN     -0.089100
     10 C14        -3.0870   -0.8500    2.5640 c         1 5CN      0.597600
     11 C15        -4.5450   -0.9800    2.3450 cc        1 5CN      0.206200
     12 C16        -5.5800   -1.0530    3.2630 cd        1 5CN     -0.183300
     13 C19        -7.1730   -1.2610   -0.0260 cg        1 5CN      0.143800
     14 C4          1.1790    0.1270    2.5030 ca        1 5CN     -0.119300
     15 C5         -0.2070   -0.0190    2.5170 ca        1 5CN     -0.127000
     16 C6         -0.8850   -0.6350    1.4460 ca        1 5CN      0.056600
     17 N1         -0.7910   -1.7720   -0.7380 nh        1 5CN     -0.637400
     18 O1          3.2150    0.4520    3.7890 oh        1 5CN     -0.595800
     19 N2         -2.2880   -0.7510    1.4410 n         1 5CN     -0.454100
     20 O2         -2.6520   -0.8340    3.7320 o         1 5CN     -0.581100
     21 C17        -6.8000   -1.1760    2.5030 cd        1 5CN     -0.204300
     22 C18        -6.4350   -1.1710    1.1670 cc        1 5CN      0.344700
     23 O3         -5.0420   -1.0500    1.0390 os        1 5CN     -0.341800
     24 N3         -7.7990   -1.3370   -1.0020 n1        1 5CN     -0.316800
     25 H2          1.8730   -1.3300   -0.4980 ha        1 5CN      0.146000
     26 H3          3.0110   -0.2120    1.4030 ha        1 5CN      0.150000
     27 H71         0.5390    4.7120   -3.8350 ha        1 5CN      0.117000
     28 H72        -1.4250    2.9510   -3.8110 hc        1 5CN      0.048700
     29 H81         1.8060    4.2230   -1.7510 ha        1 5CN      0.111000
     30 H82         1.1820    2.4800   -1.7560 ha        1 5CN      0.111000
     31 H91        -1.0940   -2.6950   -0.4980 hn        1 5CN      0.410800
     32 H92        -0.7300   -2.4550   -2.7080 h4        1 5CN      0.131000
     33 H101       -0.1420    1.6850   -3.6660 hc        1 5CN      0.048700
     34 H102        0.6040   -0.6240   -3.6530 ha        1 5CN      0.126000
     35 H11         0.7970    0.1830   -1.9930 ha        1 5CN      0.126000
     36 H121       -0.3960    3.7630   -5.9570 hc        1 5CN      0.033367
     37 H122        0.9020    2.5100   -5.8120 hc        1 5CN      0.033367
     38 H123       -0.8240    2.0050   -6.0380 hc        1 5CN      0.033367
     39 H131        1.8760    1.9230    3.4750 h1        1 5CN      0.058700
     40 H132        1.3030    0.5980    4.6070 h1        1 5CN      0.058700
     41 H16        -5.4910   -1.0250    4.3480 ha        1 5CN      0.189000
     42 H5         -0.7780    0.3500    3.3870 ha        1 5CN      0.166000
     43 HO1         3.2490   -0.5050    3.9090 ho        1 5CN      0.402000
     44 HN2        -2.7310   -0.7890    0.5470 hn        1 5CN      0.346500
     45 H17        -7.8050   -1.2560    2.9130 ha        1 5CN      0.180000
     46 C13         1.8540    0.8100    3.6500 c3        1 5CN      0.171700
@<TRIPOS>BOND
     1    1    2 ar  
     2    1   16 ar  
     3    1   17 1   
     4    2    3 ar  
     5    2   25 1   
     6    3   14 ar  
     7    3   26 1   
     8    4    5 2   
     9    4    8 1   
    10    4   27 1   
    11    5   29 1   
    12    5   30 1   
    13    6    7 2   
    14    6   17 1   
    15    6   32 1   
    16    7   34 1   
    17    7   35 1   
    18    8    9 1   
    19    8   28 1   
    20    8   33 1   
    21    9   36 1   
    22    9   37 1   
    23    9   38 1   
    24   10   11 1   
    25   10   19 1   
    26   10   20 2   
    27   11   12 2   
    28   11   23 1   
    29   12   21 1   
    30   12   41 1   
    31   13   22 1   
    32   13   24 3   
    33   14   15 ar  
    34   14   46 1   
    35   15   16 ar  
    36   15   42 1   
    37   16   19 1   
    38   17   31 1   
    39   18   43 1   
    40   18   46 1   
    41   19   44 1   
    42   21   22 2   
    43   21   45 1   
    44   22   23 1   
    45   39   46 1   
    46   40   46 1   
@<TRIPOS>SUBSTRUCTURE
     1 5CN         1 TEMP              0 ****  ****    0 ROOT
