@<TRIPOS>MOLECULE
molecule
   57    59     1     0     0
SMALL
bcc


@<TRIPOS>ATOM
      1 CAA          0.0000     0.0000     0.0000 c3         1 5CO      -0.092100
      2 CAB          5.2080    -1.4350    -2.7930 c3         1 5CO      -0.082100
      3 OAD          9.6160     0.0040     0.1240 o          1 5CO      -0.622500
      4 OAE          7.4290     0.5460     6.5040 o          1 5CO      -0.634800
      5 OAF          5.1950     0.5380     7.6270 o          1 5CO      -0.634800
      6 ClAG         8.5720     0.0010    -2.6330 cl         1 5CO      -0.066400
      7 CAH          3.9620    -0.0010     5.0460 ca         1 5CO       0.022000
      8 CAI          3.3330    -0.0010     3.8160 ca         1 5CO      -0.248000
      9 CAJ          6.1070     0.0010     3.9780 ca         1 5CO       0.022000
     10 CAK          1.5300     0.0000     0.0000 c3         1 5CO      -0.081400
     11 CAL          5.5750     0.0020    -2.4170 c3         1 5CO      -0.038200
     12 CAM          2.0400     0.0000     1.4430 c3         1 5CO       0.128400
     13 CAN          8.1580    -2.9510     8.0380 c3         1 5CO       0.153800
     14 CAO          5.9880    -2.9550     9.1210 c3         1 5CO       0.153800
     15 CAP          7.5820    -2.3010     6.7760 c3         1 5CO       0.236300
     16 CAQ          5.3230    -2.3050     7.9040 c3         1 5CO       0.236300
     17 NAR          5.6800     0.0010     0.0400 nc         1 5CO      -0.633300
     18 NAS          7.6820     0.0020     1.2440 ns         1 5CO      -0.444400
     19 OAT          3.4690    -0.0000     1.4430 os         1 5CO      -0.279900
     20 CAU          5.3450     0.0000     5.1260 ca         1 5CO      -0.352500
     21 CAV          4.0860     0.0000     2.6510 ca         1 5CO       0.224100
     22 CAW          6.3390     0.0020    -1.1180 cc         1 5CO       0.215400
     23 CAX          7.7030     0.0020    -1.1300 cd         1 5CO      -0.173800
     24 CAY          5.4840     0.0010     2.7280 ca         1 5CO      -0.169900
     25 CAZ          6.3190     0.0010     1.1920 cd         1 5CO       0.551500
     26 CBA          8.3960     0.0030     0.0970 c          1 5CO       0.691700
     27 NBB          7.1230    -3.7750     8.6770 n3         1 5CO      -0.732600
     28 NBC          6.3520    -1.5820     7.1410 n3         1 5CO      -0.820500
     29 HAA         -0.3610    -0.7800     0.6600 hc         1 5CO       0.039033
     30 HAAA        -0.3610    -0.1810    -1.0050 hc         1 5CO       0.039033
     31 HAAB        -0.3610     0.9610     0.3460 hc         1 5CO       0.039033
     32 HAB          5.6480    -1.6810    -3.7520 hc         1 5CO       0.040367
     33 HABA         5.5850    -2.1140    -2.0380 hc         1 5CO       0.040367
     34 HABB         4.1300    -1.5280    -2.8560 hc         1 5CO       0.040367
     35 HAC          8.0260    -3.8750    10.5660 h1         1 5CO       0.034367
     36 HACA         8.5130    -5.1480     9.4370 h1         1 5CO       0.034367
     37 HACB         6.9170    -5.2030    10.1980 h1         1 5CO       0.034367
     38 HAH          3.3700    -0.0020     5.9530 ha         1 5CO       0.155000
     39 HAI          2.2510    -0.0020     3.7610 ha         1 5CO       0.151000
     40 HAJ          7.1890     0.0020     4.0450 ha         1 5CO       0.152000
     41 HAK          1.8910    -0.8850    -0.5110 hc         1 5CO       0.060200
     42 HAKA         1.8910     0.8850    -0.5110 hc         1 5CO       0.060200
     43 HAL          6.1900     0.4330    -3.1970 hc         1 5CO       0.067200
     44 HALA         4.6710     0.5880    -2.3040 hc         1 5CO       0.067200
     45 HAM          1.6790     0.8850     1.9530 h1         1 5CO       0.037700
     46 HAMA         1.6790    -0.8840     1.9530 h1         1 5CO       0.037700
     47 HAN          9.0010    -3.5770     7.7690 h1         1 5CO       0.044200
     48 HANA         8.4800    -2.1790     8.7260 h1         1 5CO       0.044200
     49 HAO          6.3430    -2.1820     9.7930 h1         1 5CO       0.044200
     50 HAOA         5.2680    -3.5820     9.6320 h1         1 5CO       0.044200
     51 HAP          7.3520    -3.0680     6.0460 h1         1 5CO       0.060700
     52 HAPA         8.3030    -1.6040     6.3660 h1         1 5CO       0.060700
     53 HAQ          4.8800    -3.0710     7.2800 h1         1 5CO       0.060700
     54 HAQA         4.5610    -1.6100     8.2340 h1         1 5CO       0.060700
     55 HNAS         8.1520     0.0020     2.1280 hn         1 5CO       0.342500
     56 SBD          6.1310     0.0000     6.7030 sy         1 5CO       1.427200
     57 CAC          7.6810    -4.5510     9.7930 c3         1 5CO       0.153100
@<TRIPOS>BOND
     1     1    10 1   
     2     2    11 1   
     3    57    27 1   
     4     3    26 2   
     5     4    56 2   
     6     5    56 2   
     7     6    23 1   
     8     7     8 ar  
     9     7    20 ar  
    10     8    21 ar  
    11     9    20 ar  
    12     9    24 ar  
    13    10    12 1   
    14    11    22 1   
    15    12    19 1   
    16    13    15 1   
    17    13    27 1   
    18    14    16 1   
    19    14    27 1   
    20    15    28 1   
    21    16    28 1   
    22    17    22 1   
    23    17    25 2   
    24    18    25 1   
    25    18    26 1   
    26    19    21 1   
    27    20    56 1   
    28    21    24 ar  
    29    22    23 2   
    30    23    26 1   
    31    24    25 1   
    32    28    56 1   
    33     1    29 1   
    34     1    30 1   
    35     1    31 1   
    36     2    32 1   
    37     2    33 1   
    38     2    34 1   
    39    57    35 1   
    40    57    36 1   
    41    57    37 1   
    42     7    38 1   
    43     8    39 1   
    44     9    40 1   
    45    10    41 1   
    46    10    42 1   
    47    11    43 1   
    48    11    44 1   
    49    12    45 1   
    50    12    46 1   
    51    13    47 1   
    52    13    48 1   
    53    14    49 1   
    54    14    50 1   
    55    15    51 1   
    56    15    52 1   
    57    16    53 1   
    58    16    54 1   
    59    18    55 1   
@<TRIPOS>SUBSTRUCTURE
     1 5CO         1 TEMP              0 ****  ****    0 ROOT
