@<TRIPOS>MOLECULE
5CO
   57    59     1     0     0
SMALL
bcc


@<TRIPOS>ATOM
      1 CAA          0.0000     0.0000     0.0000 c3         1 5CO       0.010900
      2 CAB          5.2080    -1.4350    -2.7930 c3         1 5CO       0.014900
      3 OAD          9.6160     0.0040     0.1240 o          1 5CO      -0.671500
      4 OAE          7.4290     0.5460     6.5040 o          1 5CO      -0.587300
      5 OAF          5.1950     0.5380     7.6270 o          1 5CO      -0.587300
      6 ClAG         8.5720     0.0010    -2.6330 cl         1 5CO       0.044600
      7 CAH          3.9620    -0.0010     5.0460 ca         1 5CO       0.061000
      8 CAI          3.3330    -0.0010     3.8160 ca         1 5CO      -0.247000
      9 CAJ          6.1070     0.0010     3.9780 ca         1 5CO       0.049000
     10 CAK          1.5300     0.0000     0.0000 c3         1 5CO      -0.032400
     11 CAL          5.5750     0.0020    -2.4170 c3         1 5CO       0.011800
     12 CAM          2.0400     0.0000     1.4430 c3         1 5CO       0.192400
     13 CAN          8.1580    -2.9510     8.0380 c3         1 5CO       0.140800
     14 CAO          5.9880    -2.9550     9.1210 c3         1 5CO       0.140800
     15 CAP          7.5820    -2.3010     6.7760 c3         1 5CO       0.234300
     16 CAQ          5.3230    -2.3050     7.9040 c3         1 5CO       0.234300
     17 NAR          5.6800     0.0010     0.0400 nc         1 5CO      -0.519300
     18 NAS          7.6820     0.0020     1.2440 ns         1 5CO       0.031600
     19 OAT          3.4690    -0.0000     1.4430 os         1 5CO      -0.260900
     20 CAU          5.3450     0.0000     5.1260 ca         1 5CO      -0.202500
     21 CAV          4.0860     0.0000     2.6510 ca         1 5CO       0.227100
     22 CAW          6.3390     0.0020    -1.1180 cc         1 5CO       0.160400
     23 CAX          7.7030     0.0020    -1.1300 cd         1 5CO      -0.250800
     24 CAY          5.4840     0.0010     2.7280 ca         1 5CO      -0.194900
     25 CAZ          6.3190     0.0010     1.1920 cd         1 5CO       0.354500
     26 CBA          8.3960     0.0030     0.0970 c          1 5CO       0.593700
     27 NBB          7.1230    -3.7750     8.6770 n3         1 5CO      -0.546600
     28 NBC          6.3520    -1.5820     7.1410 n3         1 5CO      -0.534500
     29 HAA         -0.3610    -0.7800     0.6600 hc         1 5CO       0.003367
     30 HAAA        -0.3610    -0.1810    -1.0050 hc         1 5CO       0.003367
     31 HAAB        -0.3610     0.9610     0.3460 hc         1 5CO       0.003367
     32 HAB          5.6480    -1.6810    -3.7520 hc         1 5CO       0.005367
     33 HABA         5.5850    -2.1140    -2.0380 hc         1 5CO       0.005367
     34 HABB         4.1300    -1.5280    -2.8560 hc         1 5CO       0.005367
     35 HAC          8.0260    -3.8750    10.5660 h1         1 5CO       0.000700
     36 HACA         8.5130    -5.1480     9.4370 h1         1 5CO       0.000700
     37 HACB         6.9170    -5.2030    10.1980 h1         1 5CO       0.000700
     38 HAH          3.3700    -0.0020     5.9530 ha         1 5CO       0.122000
     39 HAI          2.2510    -0.0020     3.7610 ha         1 5CO       0.133000
     40 HAJ          7.1890     0.0020     4.0450 ha         1 5CO       0.121000
     41 HAK          1.8910    -0.8850    -0.5110 hc         1 5CO       0.026200
     42 HAKA         1.8910     0.8850    -0.5110 hc         1 5CO       0.026200
     43 HAL          6.1900     0.4330    -3.1970 hc         1 5CO       0.031700
     44 HALA         4.6710     0.5880    -2.3040 hc         1 5CO       0.031700
     45 HAM          1.6790     0.8850     1.9530 h1         1 5CO       0.003200
     46 HAMA         1.6790    -0.8840     1.9530 h1         1 5CO       0.003200
     47 HAN          9.0010    -3.5770     7.7690 h1         1 5CO       0.016450
     48 HANA         8.4800    -2.1790     8.7260 h1         1 5CO       0.016450
     49 HAO          6.3430    -2.1820     9.7930 h1         1 5CO       0.016450
     50 HAOA         5.2680    -3.5820     9.6320 h1         1 5CO       0.016450
     51 HAP          7.3520    -3.0680     6.0460 h1         1 5CO       0.026200
     52 HAPA         8.3030    -1.6040     6.3660 h1         1 5CO       0.026200
     53 HAQ          4.8800    -3.0710     7.2800 h1         1 5CO       0.026200
     54 HAQA         4.5610    -1.6100     8.2340 h1         1 5CO       0.026200
     55 HNAS         8.1520     0.0020     2.1280 hn         1 5CO       0.188500
     56 SBD          6.1310     0.0000     6.7030 sy         1 5CO       1.056200
     57 CAC          7.6810    -4.5510     9.7930 c3         1 5CO       0.190100
@<TRIPOS>BOND
     1     1    10 1   
     2     1    29 1   
     3     1    30 1   
     4     1    31 1   
     5     2    11 1   
     6     2    32 1   
     7     2    33 1   
     8     2    34 1   
     9     3    26 2   
    10     4    56 2   
    11     5    56 2   
    12     6    23 1   
    13     7     8 ar  
    14     7    20 ar  
    15     7    38 1   
    16     8    21 ar  
    17     8    39 1   
    18     9    20 ar  
    19     9    24 ar  
    20     9    40 1   
    21    10    12 1   
    22    10    41 1   
    23    10    42 1   
    24    11    22 1   
    25    11    43 1   
    26    11    44 1   
    27    12    19 1   
    28    12    45 1   
    29    12    46 1   
    30    13    15 1   
    31    13    27 1   
    32    13    47 1   
    33    13    48 1   
    34    14    16 1   
    35    14    27 1   
    36    14    49 1   
    37    14    50 1   
    38    15    28 1   
    39    15    51 1   
    40    15    52 1   
    41    16    28 1   
    42    16    53 1   
    43    16    54 1   
    44    17    22 1   
    45    17    25 2   
    46    18    25 1   
    47    18    26 1   
    48    18    55 1   
    49    19    21 1   
    50    20    56 1   
    51    21    24 ar  
    52    22    23 2   
    53    23    26 1   
    54    24    25 1   
    55    27    57 1   
    56    28    56 1   
    57    35    57 1   
    58    36    57 1   
    59    37    57 1   
@<TRIPOS>SUBSTRUCTURE
     1 5CO         1 TEMP              0 ****  ****    0 ROOT
