@<TRIPOS>MOLECULE
molecule
   47    50     1     0     0
SMALL
bcc


@<TRIPOS>ATOM
      1 C4           0.0000     0.0000     0.0000 ca         1 5CP       0.686200
      2 C5           1.3910     0.0000     0.0000 ca         1 5CP      -0.444600
      3 C6           2.0540     0.0000     1.2240 ca         1 5CP       0.710200
      4 N1           1.3400    -0.0000     2.3470 nb         1 5CP      -0.808000
      5 N3          -0.6480     0.0010     1.1630 nb         1 5CP      -0.823000
      6 C1U         -6.6560    -0.9640     0.1820 cx         1 5CP      -0.144900
      7 C1W         -6.6980     0.5590     0.0330 cx         1 5CP      -0.144900
      8 C1T         -5.4320    -0.1250     0.5550 cx         1 5CP      -0.055400
      9 C1R         -4.2050    -0.2070    -0.4600 cc         1 5CP      -0.013600
     10 C1S         -2.9220    -0.0820    -0.0480 cd         1 5CP      -0.367300
     11 N1Q         -4.1990    -0.3060    -1.8060 na         1 5CP      -0.030600
     12 N1P         -2.8690    -0.2340    -2.2420 nc         1 5CP      -0.546800
     13 C1H         -2.1010    -0.0990    -1.1880 cd         1 5CP       0.480200
     14 N1G         -0.7030     0.0050    -1.1960 nu         1 5CP      -0.783600
     15 N1X          3.4390    -0.0000     1.2720 nu         1 5CP      -0.792900
     16 C1Y          4.2160    -0.0010     0.0310 c3         1 5CP       0.124100
     17 C2           0.0160     0.0010     2.3090 ca         1 5CP       0.935900
     18 N1I         -0.6930     0.0010     3.4990 nu         1 5CP      -0.669300
     19 C1J         -0.0150    -0.1200     4.7160 ca         1 5CP       0.072600
     20 C1O         -0.4470     0.5960     5.8270 ca         1 5CP      -0.116000
     21 C1N          0.2240     0.4750     7.0280 ca         1 5CP      -0.112000
     22 C1K          1.0880    -0.9570     4.8200 ca         1 5CP      -0.116000
     23 C1L          1.7540    -1.0740     6.0230 ca         1 5CP      -0.112000
     24 C1M          1.3240    -0.3560     7.1250 ca         1 5CP      -0.096300
     25 C1V          2.0550    -0.4860     8.4370 c3         1 5CP       0.010000
     26 C1Z          1.4640    -1.5820     9.2210 c1         1 5CP       0.222700
     27 N1A          0.9950    -2.4320     9.8120 n1         1 5CP      -0.379800
     28 H5           1.9330    -0.0000    -0.9380 ha         1 5CP       0.164000
     29 H1UA        -7.2180    -1.3680     1.0160 hc         1 5CP       0.077950
     30 H1W         -6.6450     0.9300    -0.9830 hc         1 5CP       0.077950
     31 H1WA        -7.2860     1.0850     0.7760 hc         1 5CP       0.077950
     32 H1T         -5.4660     0.0250     1.6270 hc         1 5CP       0.112700
     33 H1S         -2.5840     0.4570     0.8280 ha         1 5CP       0.208000
     34 HN1Q        -4.9630    -0.0900    -2.4150 hn         1 5CP       0.329700
     35 HN1G        -1.3240    -0.7490    -1.4150 hn         1 5CP       0.490800
     36 HN1X         3.9310     0.8360     1.5160 hn         1 5CP       0.396800
     37 H1Y          3.5630    -0.2280    -0.8040 h1         1 5CP       0.045033
     38 H1YA         4.6640     0.9740    -0.1160 h1         1 5CP       0.045033
     39 H1YB         4.9950    -0.7510     0.0930 h1         1 5CP       0.045033
     40 HN1I        -1.3370    -0.7390     3.6970 hn         1 5CP       0.418800
     41 H1O         -1.3090     1.2470     5.7490 ha         1 5CP       0.151000
     42 H1N         -0.1120     1.0320     7.8940 ha         1 5CP       0.136000
     43 H1K          1.4250    -1.5180     3.9560 ha         1 5CP       0.151000
     44 H1L          2.6140    -1.7260     6.1050 ha         1 5CP       0.136000
     45 H1V          2.4360     0.4830     8.7360 hc         1 5CP       0.086200
     46 H1VA         2.8800    -1.1800     8.3240 hc         1 5CP       0.086200
     47 H1U         -6.5760    -1.5220    -0.7430 hc         1 5CP       0.077950
@<TRIPOS>BOND
     1     1     2 ar
     2     1     5 ar
     3     1    14 1
     4     2     3 ar
     5     3     4 ar
     6     3    15 1
     7     4    17 ar
     8     5    17 ar
     9     6     7 1
    10     6     8 1
    11     7     8 1
    12     8     9 1
    13     9    10 2
    14     9    11 1
    15    10    13 1
    16    11    12 1
    17    12    13 2
    18    13    14 1
    19    15    16 1
    20    17    18 1
    21    18    19 1
    22    19    20 ar
    23    19    22 ar
    24    20    21 ar
    25    21    24 ar
    26    22    23 ar
    27    23    24 ar
    28    24    25 1
    29    25    26 1
    30    26    27 3
    31     2    28 1
    32     6    47 1
    33     6    29 1
    34     7    30 1
    35     7    31 1
    36     8    32 1
    37    10    33 1
    38    11    34 1
    39    14    35 1
    40    15    36 1
    41    16    37 1
    42    16    38 1
    43    16    39 1
    44    18    40 1
    45    20    41 1
    46    21    42 1
    47    22    43 1
    48    23    44 1
    49    25    45 1
    50    25    46 1
@<TRIPOS>SUBSTRUCTURE
     1 5CP         1 TEMP              0 ****  ****    0 ROOT
