@<TRIPOS>MOLECULE
5CP
   47    51     1     0     0
SMALL
bcc


@<TRIPOS>ATOM
      1 C4           0.0000     0.0000     0.0000 c2         1 5CP       0.080000
      2 C5           1.3910     0.0000     0.0000 c2         1 5CP      -0.307000
      3 C6           2.0540     0.0000     1.2240 c2         1 5CP       0.053000
      4 N1           1.3400    -0.0000     2.3470 n2         1 5CP      -0.176000
      5 N3          -0.6480     0.0010     1.1630 n2         1 5CP      -0.193000
      6 C1U         -6.6560    -0.9640     0.1820 cx         1 5CP      -0.172500
      7 C1W         -6.6980     0.5590     0.0330 cx         1 5CP      -0.172500
      8 C1T         -5.4320    -0.1250     0.5550 cx         1 5CP      -0.049000
      9 C1R         -4.2050    -0.2070    -0.4600 c2         1 5CP      -0.138000
     10 C1S         -2.9220    -0.0820    -0.0480 c2         1 5CP      -0.319000
     11 N1Q         -4.1990    -0.3060    -1.8060 n7         1 5CP       0.312000
     12 N1P         -2.8690    -0.2340    -2.2420 n2         1 5CP      -0.276000
     13 C1H         -2.1010    -0.0990    -1.1880 c3         1 5CP      -0.027000
     14 N1G         -0.7030     0.0050    -1.1960 nu         1 5CP      -0.050000
     15 N1X          3.4390    -0.0000     1.2720 nu         1 5CP       0.048000
     16 C1Y          4.2160    -0.0010     0.0310 c3         1 5CP      -0.141000
     17 C2           0.0160     0.0010     2.3090 c2         1 5CP       0.026000
     18 N1I         -0.6930     0.0010     3.4990 nu         1 5CP       0.146000
     19 C1J         -0.0150    -0.1200     4.7160 ca         1 5CP      -0.108000
     20 C1O         -0.4470     0.5960     5.8270 ca         1 5CP      -0.094000
     21 C1N          0.2240     0.4750     7.0280 ca         1 5CP      -0.079000
     22 C1K          1.0880    -0.9570     4.8200 ca         1 5CP      -0.094000
     23 C1L          1.7540    -1.0740     6.0230 ca         1 5CP      -0.079000
     24 C1M          1.3240    -0.3560     7.1250 ca         1 5CP      -0.110000
     25 C1V          2.0550    -0.4860     8.4370 c3         1 5CP       0.089000
     26 C1Z          1.4640    -1.5820     9.2210 c1         1 5CP      -0.149000
     27 N1A          0.9950    -2.4320     9.8120 n1         1 5CP      -0.074000
     28 H5           1.9330    -0.0000    -0.9380 ha         1 5CP       0.152000
     29 H1UA        -7.2180    -1.3680     1.0160 hc         1 5CP       0.086500
     30 H1W         -6.6450     0.9300    -0.9830 hc         1 5CP       0.086500
     31 H1WA        -7.2860     1.0850     0.7760 hc         1 5CP       0.086500
     32 H1T         -5.4660     0.0250     1.6270 hc         1 5CP       0.117000
     33 H1S         -2.5840     0.4570     0.8280 ha         1 5CP       0.191000
     34 HN1Q        -4.9630    -0.0900    -2.4150 hn         1 5CP       0.100000
     35 HN1G        -1.3240    -0.7490    -1.4150 DU         1 5CP       0.211000
     36 HN1X         3.9310     0.8360     1.5160 hn         1 5CP       0.074000
     37 H1Y          3.5630    -0.2280    -0.8040 h1         1 5CP       0.052333
     38 H1YA         4.6640     0.9740    -0.1160 h1         1 5CP       0.052333
     39 H1YB         4.9950    -0.7510     0.0930 h1         1 5CP       0.052333
     40 HN1I        -1.3370    -0.7390     3.6970 hn         1 5CP       0.077000
     41 H1O         -1.3090     1.2470     5.7490 ha         1 5CP       0.123000
     42 H1N         -0.1120     1.0320     7.8940 ha         1 5CP       0.108000
     43 H1K          1.4250    -1.5180     3.9560 ha         1 5CP       0.123000
     44 H1L          2.6140    -1.7260     6.1050 ha         1 5CP       0.108000
     45 H1V          2.4360     0.4830     8.7360 hc         1 5CP       0.082500
     46 H1VA         2.8800    -1.1800     8.3240 hc         1 5CP       0.082500
     47 H1U         -6.5760    -1.5220    -0.7430 hc         1 5CP       0.086500
@<TRIPOS>BOND
     1     1     2 1   
     2     1     5 1   
     3     1    14 1   
     4     2     3 1   
     5     2    28 1   
     6     3     4 1   
     7     3    15 1   
     8     4    17 1   
     9     5    17 1   
    10     6     7 1   
    11     6     8 1   
    12     6    29 1   
    13     6    47 1   
    14     7     8 1   
    15     7    30 1   
    16     7    31 1   
    17     8     9 1   
    18     8    32 1   
    19     9    10 1   
    20     9    11 1   
    21    10    13 1   
    22    10    33 1   
    23    11    12 1   
    24    11    34 1   
    25    12    13 1   
    26    13    14 1   
    27    13    35 1   
    28    14    35 1   
    29    15    16 1   
    30    15    36 1   
    31    16    37 1   
    32    16    38 1   
    33    16    39 1   
    34    17    18 1   
    35    18    19 1   
    36    18    40 1   
    37    19    20 1   
    38    19    22 1   
    39    20    21 1   
    40    20    41 1   
    41    21    24 1   
    42    21    42 1   
    43    22    23 1   
    44    22    43 1   
    45    23    24 1   
    46    23    44 1   
    47    24    25 1   
    48    25    26 1   
    49    25    45 1   
    50    25    46 1   
    51    26    27 1   
@<TRIPOS>SUBSTRUCTURE
     1 5CP         1 TEMP              0 ****  ****    0 ROOT
