@<TRIPOS>MOLECULE
molecule
   43    45     1     0     0
SMALL
bcc


@<TRIPOS>ATOM
      1 C01          0.0000     0.0000     0.0000 ca         1 5CQ      -0.154000
      2 C02          1.3880     0.0000     0.0000 ca         1 5CQ       0.103100
      3 C03          2.0780     0.0000     1.2030 ca         1 5CQ      -0.152000
      4 C04          1.3840    -0.0020     2.3970 ca         1 5CQ      -0.067300
      5 C05          0.0010    -0.0030     2.3940 ca         1 5CQ      -0.084300
      6 C06         -0.6900     0.0050     1.1960 ca         1 5CQ      -0.109000
      7 C07         -0.7540    -0.0060     3.6980 c3         1 5CQ      -0.029400
      8 C08         -1.5280    -1.3150     3.8430 c3         1 5CQ      -0.062400
      9 C09         -2.3260    -1.3480     5.1240 c3         1 5CQ      -0.061700
     10 C10         -3.2190    -0.1090     5.3230 c3         1 5CQ      -0.054000
     11 C11         -2.4210     1.1760     5.0940 c3         1 5CQ      -0.072400
     12 C12         -1.7600     1.1520     3.7160 c3         1 5CQ      -0.071400
     13 C13         -1.4330    -1.3330     6.3790 c3         1 5CQ      -0.078400
     14 C14         -2.4040    -0.9130     7.5060 c3         1 5CQ      -0.111400
     15 C15         -3.5530    -0.1610     6.8380 c3         1 5CQ       0.146100
     16 O01         -4.7830    -0.8590     7.0460 oh         1 5CQ      -0.603800
     17 C16         -4.4720    -0.1650     4.4470 c3         1 5CQ      -0.066100
     18 O02          2.0680     0.0010    -1.1760 oh         1 5CQ      -0.523100
     19 C17          2.1330    -0.0020     3.7040 c3         1 5CQ      -0.047800
     20 H1          -0.5420     0.0030    -0.9380 ha         1 5CQ       0.139000
     21 H2           3.1610     0.0000     1.2060 ha         1 5CQ       0.139000
     22 H3          -1.7730     0.0040     1.1960 ha         1 5CQ       0.135000
     23 H4          -0.0630     0.1010     4.5250 hc         1 5CQ       0.061700
     24 H5          -0.8270    -2.1410     3.8430 hc         1 5CQ       0.045200
     25 H6          -2.2050    -1.4190     3.0030 hc         1 5CQ       0.045200
     26 H7          -2.9430    -2.2380     5.1370 hc         1 5CQ       0.064700
     27 H8          -1.6550     1.2620     5.8560 hc         1 5CQ       0.043200
     28 H9          -3.0900     2.0270     5.1550 hc         1 5CQ       0.043200
     29 H10         -2.5120     0.9950     2.9520 hc         1 5CQ       0.048200
     30 H11         -1.2430     2.0880     3.5420 hc         1 5CQ       0.048200
     31 H12         -0.6380    -0.6040     6.2710 hc         1 5CQ       0.045200
     32 H13         -1.0310    -2.3200     6.5710 hc         1 5CQ       0.045200
     33 H14         -2.7830    -1.7920     8.0130 hc         1 5CQ       0.049700
     34 H15         -1.8960    -0.2630     8.2080 hc         1 5CQ       0.049700
     35 H16         -3.6190     0.8440     7.2370 h1         1 5CQ       0.032700
     36 H17         -5.2090    -0.5230     7.8160 ho         1 5CQ       0.398000
     37 H18         -4.1880    -0.0810     3.4040 hc         1 5CQ       0.038367
     38 H19         -4.9830    -1.1060     4.6070 hc         1 5CQ       0.038367
     39 H20         -5.1310     0.6540     4.7080 hc         1 5CQ       0.038367
     40 H21          2.2630    -0.8870    -1.4270 ho         1 5CQ       0.417000
     41 H22          3.1990     0.0010     3.5090 hc         1 5CQ       0.044367
     42 H23          1.8670     0.8800     4.2730 hc         1 5CQ       0.044367
     43 H24          1.8720    -0.8890     4.2700 hc         1 5CQ       0.044367
@<TRIPOS>BOND
     1    14    15 1
     2    14    13 1
     3    16    15 1
     4    15    10 1
     5    13     9 1
     6    10     9 1
     7    10    11 1
     8    10    17 1
     9     9     8 1
    10    11    12 1
    11     8     7 1
    12    12     7 1
    13     7     5 1
    14    19     4 1
    15     5     4 ar
    16     5     6 ar
    17     4     3 ar
    18     6     1 ar
    19     3     2 ar
    20     1     2 ar
    21     2    18 1
    22     1    20 1
    23     3    21 1
    24     6    22 1
    25     7    23 1
    26     8    24 1
    27     8    25 1
    28     9    26 1
    29    11    27 1
    30    11    28 1
    31    12    29 1
    32    12    30 1
    33    13    31 1
    34    13    32 1
    35    14    33 1
    36    14    34 1
    37    15    35 1
    38    16    36 1
    39    17    37 1
    40    17    38 1
    41    17    39 1
    42    18    40 1
    43    19    41 1
    44    19    42 1
    45    19    43 1
@<TRIPOS>SUBSTRUCTURE
     1 5CQ         1 TEMP              0 ****  ****    0 ROOT
