@<TRIPOS>MOLECULE
5CU
   14    14     1     0     0
SMALL
bcc


@<TRIPOS>ATOM
      1 O53          0.0000     0.0000     0.0000 o          1 5CU      -0.869800
      2 C51          1.2150     0.0000     0.0000 c          1 5CU       0.985800
      3 O52          1.8900     0.0000     1.1670 o          1 5CU      -0.869800
      4 C5           1.9490    -0.0070    -1.2730 cc         1 5CU      -0.233400
      5 C4           3.4210    -0.0080    -1.2980 c          1 5CU       0.595700
      6 O4           4.0610    -0.0020    -0.2630 o          1 5CU      -0.589500
      7 N3           4.0450    -0.0150    -2.4950 ns         1 5CU      -0.157500
      8 C2           3.3320    -0.0210    -3.6340 c          1 5CU       0.575500
      9 O2           3.9220    -0.0270    -4.6970 o          1 5CU      -0.775500
     10 N1           1.9900    -0.0200    -3.6370 ns         1 5CU       0.017900
     11 C6           1.2780    -0.0190    -2.4810 cd         1 5CU      -0.186400
     12 H3           5.0450    -0.0160    -2.5340 hn         1 5CU       0.186500
     13 H4           0.1950    -0.0180    -2.5060 h4         1 5CU       0.153000
     14 H2           1.5030    -0.0260    -4.5110 hn         1 5CU       0.167500
@<TRIPOS>BOND
     1     1     2 1   
     2     2     3 1   
     3     2     4 1   
     4     4     5 1   
     5     4    11 2   
     6     5     6 2   
     7     5     7 1   
     8     7     8 1   
     9     7    12 1   
    10     8     9 2   
    11     8    10 1   
    12    10    11 1   
    13    10    14 1   
    14    11    13 1   
@<TRIPOS>SUBSTRUCTURE
     1 5CU         1 TEMP              0 ****  ****    0 ROOT
