@<TRIPOS>MOLECULE
5CV
   74    78     1     0     0
SMALL
bcc


@<TRIPOS>ATOM
      1 C4           0.0000     0.0000     0.0000 cc         1 5CV      -0.168400
      2 C5           1.3600     0.0000     0.0000 cd         1 5CV      -0.161400
      3 C8          -0.6930    -0.0030     3.7010 cc         1 5CV      -0.172100
      4 C10         -0.6500     0.9990     4.6170 cd         1 5CV      -0.135200
      5 C15         -2.6490     0.5000     7.8410 ca         1 5CV       0.120100
      6 C22         -3.5090    -0.9530    13.4910 c3         1 5CV       0.175600
      7 C26         -2.2420    -1.0260    -2.8080 cc         1 5CV      -0.409900
      8 C23         -5.4720    -2.0200    12.5580 c3         1 5CV       0.175600
      9 C18         -3.8430     0.3200     9.8910 c3         1 5CV       0.203400
     10 C16         -1.8200     1.1710     6.9660 ca         1 5CV      -0.097000
     11 C2           0.0120    -0.0020     2.4040 cd         1 5CV      -0.137200
     12 C12         -1.9820    -0.6940     5.4180 ca         1 5CV      -0.257200
     13 C11         -1.4800     0.5800     5.7450 ca         1 5CV      -0.064800
     14 N21         -4.4320    -1.0060    12.3490 n3         1 5CV      -0.547600
     15 C20         -5.0260     0.3130    12.0910 c3         1 5CV       0.152800
     16 C19         -4.1050     1.1160    11.1700 c3         1 5CV      -0.068000
     17 C39         -2.7790     1.3870    11.8830 c3         1 5CV      -0.000100
     18 C40         -4.7740     2.4460    10.8150 c3         1 5CV      -0.000100
     19 O17         -2.9830     1.0700     9.0300 os         1 5CV      -0.308900
     20 C14         -3.1430    -0.7610     7.5140 ca         1 5CV      -0.186000
     21 C13         -2.8150    -1.3530     6.3140 ca         1 5CV      -0.062000
     22 N9          -1.4880    -1.0230     4.1700 na         1 5CV       0.361600
     23 C3          -0.7030    -0.0010     1.2140 cc         1 5CV       0.001000
     24 C1           1.4290    -0.0020     2.3550 c          1 5CV       0.578700
     25 N6           2.0610     0.0000     1.1650 ns         1 5CV       0.097900
     26 N24         -0.7010     0.0070    -1.2170 ns         1 5CV      -0.058100
     27 C25         -1.5880    -0.9720    -1.4880 c          1 5CV       0.637700
     28 O27         -1.8470    -1.8090    -0.6460 o          1 5CV      -0.656100
     29 C28         -3.1650    -1.9650    -3.2270 cd         1 5CV      -0.175300
     30 C31         -2.0470    -0.1260    -3.8800 cc         1 5CV       0.414200
     31 N30         -2.8030    -0.5100    -4.8720 nd         1 5CV      -0.644800
     32 N29         -3.5080    -1.6550    -4.4870 na         1 5CV       0.513400
     33 C32         -4.4620    -2.3930    -5.3200 c3         1 5CV       0.051600
     34 C33         -5.5310    -1.4510    -5.8140 ca         1 5CV      -0.135300
     35 C34         -5.3600    -0.7790    -7.0100 ca         1 5CV      -0.070500
     36 C35         -6.3400     0.0850    -7.4630 ca         1 5CV      -0.101500
     37 C36         -7.4900     0.2770    -6.7200 ca         1 5CV      -0.085000
     38 C37         -7.6600    -0.3960    -5.5240 ca         1 5CV      -0.101500
     39 C38         -6.6830    -1.2640    -5.0730 ca         1 5CV      -0.070500
     40 H1           1.8940     0.0010    -0.9430 h4         1 5CV       0.126000
     41 H2          -0.2460     1.9910     4.4570 ha         1 5CV       0.129000
     42 H3          -2.4870    -0.9770    13.1310 h1         1 5CV       0.003700
     43 H4          -3.6750    -0.0390    14.0470 h1         1 5CV       0.003700
     44 H5          -3.6840    -1.8060    14.1360 h1         1 5CV       0.003700
     45 H6          -5.0080    -2.9850    12.7250 h1         1 5CV       0.003700
     46 H7          -6.1080    -2.0710    11.6830 h1         1 5CV       0.003700
     47 H8          -6.0690    -1.7520    13.4220 h1         1 5CV       0.003700
     48 H9          -4.7820     0.1290     9.3860 h1         1 5CV       0.012200
     49 H10         -3.3700    -0.6220    10.1420 h1         1 5CV       0.012200
     50 H11         -1.5260     2.1930     7.1740 ha         1 5CV       0.113000
     51 H13         -5.1510     0.8420    13.0280 h1         1 5CV       0.015700
     52 H14         -5.9920     0.1870    11.6160 h1         1 5CV       0.015700
     53 H15         -2.2530     2.1870    11.3770 hc         1 5CV       0.009867
     54 H16         -2.1720     0.4900    11.8690 hc         1 5CV       0.009867
     55 H17         -2.9730     1.6750    12.9090 hc         1 5CV       0.009867
     56 H18         -4.0580     3.0900    10.3190 hc         1 5CV       0.009867
     57 H19         -5.1250     2.9270    11.7200 hc         1 5CV       0.009867
     58 H20         -5.6130     2.2630    10.1550 hc         1 5CV       0.009867
     59 H21         -3.7930    -1.2790     8.2080 ha         1 5CV       0.119000
     60 H22         -3.2050    -2.3340     6.0690 ha         1 5CV       0.095000
     61 H23         -1.6800    -1.8750     3.6820 hn         1 5CV       0.115700
     62 H24         -1.7860    -0.0010     1.2230 ha         1 5CV       0.128000
     63 H25          3.0610     0.0000     1.1380 hn         1 5CV       0.170500
     64 H26         -0.5750     0.7610    -1.8630 hn         1 5CV       0.168500
     65 H27         -3.5400    -2.7990    -2.6460 h4         1 5CV       0.162000
     66 H28         -1.3850     0.7310    -3.8780 h4         1 5CV       0.000100
     67 H29         -3.9430    -2.8250    -6.1670 h1         1 5CV       0.036200
     68 H30         -4.9180    -3.1820    -4.7350 h1         1 5CV       0.036200
     69 H31         -4.4590    -0.9290    -7.5920 ha         1 5CV       0.108000
     70 H32         -6.2060     0.6110    -8.4000 ha         1 5CV       0.106000
     71 H33         -8.2570     0.9550    -7.0740 ha         1 5CV       0.104000
     72 H34         -8.5620    -0.2480    -4.9430 ha         1 5CV       0.106000
     73 H35         -6.8160    -1.7910    -4.1360 ha         1 5CV       0.108000
     74 O7           2.0760    -0.0040     3.3890 o          1 5CV      -0.678500
@<TRIPOS>BOND
     1     1     2 2   
     2     1    23 1   
     3     1    26 1   
     4     2    25 1   
     5     2    40 1   
     6     3     4 2   
     7     3    11 1   
     8     3    22 1   
     9     4    13 1   
    10     4    41 1   
    11     5    10 ar  
    12     5    19 1   
    13     5    20 ar  
    14     6    14 1   
    15     6    42 1   
    16     6    43 1   
    17     6    44 1   
    18     7    27 1   
    19     7    29 2   
    20     7    30 1   
    21     8    14 1   
    22     8    45 1   
    23     8    46 1   
    24     8    47 1   
    25     9    16 1   
    26     9    19 1   
    27     9    48 1   
    28     9    49 1   
    29    10    13 ar  
    30    10    50 1   
    31    11    23 2   
    32    11    24 1   
    33    12    13 ar  
    34    12    21 ar  
    35    12    22 1   
    36    14    15 1   
    37    15    16 1   
    38    15    51 1   
    39    15    52 1   
    40    16    17 1   
    41    16    18 1   
    42    17    53 1   
    43    17    54 1   
    44    17    55 1   
    45    18    56 1   
    46    18    57 1   
    47    18    58 1   
    48    20    21 ar  
    49    20    59 1   
    50    21    60 1   
    51    22    61 1   
    52    23    62 1   
    53    24    25 1   
    54    24    74 2   
    55    25    63 1   
    56    26    27 1   
    57    26    64 1   
    58    27    28 2   
    59    29    32 1   
    60    29    65 1   
    61    30    31 2   
    62    30    66 1   
    63    31    32 1   
    64    32    33 1   
    65    33    34 1   
    66    33    67 1   
    67    33    68 1   
    68    34    35 ar  
    69    34    39 ar  
    70    35    36 ar  
    71    35    69 1   
    72    36    37 ar  
    73    36    70 1   
    74    37    38 ar  
    75    37    71 1   
    76    38    39 ar  
    77    38    72 1   
    78    39    73 1   
@<TRIPOS>SUBSTRUCTURE
     1 5CV         1 TEMP              0 ****  ****    0 ROOT
