@<TRIPOS>MOLECULE
molecule
   74    78     1     0     0
SMALL
bcc


@<TRIPOS>ATOM
      1 C4           0.0000     0.0000     0.0000 cc         1 5CV      -0.043400
      2 C5           1.3600     0.0000     0.0000 cd         1 5CV      -0.010400
      3 C8          -0.6930    -0.0030     3.7010 cd         1 5CV       0.011900
      4 C10         -0.6500     0.9990     4.6170 cc         1 5CV      -0.163200
      5 C15         -2.6490     0.5000     7.8410 ca         1 5CV       0.114100
      6 C22         -3.5090    -0.9530    13.4910 c3         1 5CV       0.150100
      7 C26         -2.2420    -1.0260    -2.8080 cd         1 5CV      -0.389900
      8 C23         -5.4720    -2.0200    12.5580 c3         1 5CV       0.150100
      9 C18         -3.8430     0.3200     9.8910 c3         1 5CV       0.153400
     10 C16         -1.8200     1.1710     6.9660 ca         1 5CV      -0.121000
     11 C2           0.0120    -0.0020     2.4040 cd         1 5CV      -0.161200
     12 C12         -1.9820    -0.6940     5.4180 ca         1 5CV      -0.064200
     13 C11         -1.4800     0.5800     5.7450 ca         1 5CV      -0.069800
     14 N21         -4.4320    -1.0060    12.3490 n3         1 5CV      -0.737600
     15 C20         -5.0260     0.3130    12.0910 c3         1 5CV       0.167800
     16 C19         -4.1050     1.1160    11.1700 c3         1 5CV      -0.057000
     17 C39         -2.7790     1.3870    11.8830 c3         1 5CV      -0.081600
     18 C40         -4.7740     2.4460    10.8150 c3         1 5CV      -0.081600
     19 O17         -2.9830     1.0700     9.0300 os         1 5CV      -0.337900
     20 C14         -3.1430    -0.7610     7.5140 ca         1 5CV      -0.192000
     21 C13         -2.8150    -1.3530     6.3140 ca         1 5CV      -0.110000
     22 N9          -1.4880    -1.0230     4.1700 na         1 5CV      -0.178400
     23 C3          -0.7030    -0.0010     1.2140 cc         1 5CV      -0.014000
     24 C1           1.4290    -0.0020     2.3550 c          1 5CV       0.686700
     25 N6           2.0610     0.0000     1.1650 ns         1 5CV      -0.404100
     26 N24         -0.7010     0.0070    -1.2170 ns         1 5CV      -0.493100
     27 C25         -1.5880    -0.9720    -1.4880 c          1 5CV       0.717700
     28 O27         -1.8470    -1.8090    -0.6460 o          1 5CV      -0.611100
     29 C28         -3.1650    -1.9650    -3.2270 cc         1 5CV      -0.039300
     30 C31         -2.0470    -0.1260    -3.8800 cd         1 5CV       0.352200
     31 N30         -2.8030    -0.5100    -4.8720 nc         1 5CV      -0.503800
     32 N29         -3.5080    -1.6550    -4.4870 na         1 5CV       0.084400
     33 C32         -4.4620    -2.3930    -5.3200 c3         1 5CV       0.122600
     34 C33         -5.5310    -1.4510    -5.8140 ca         1 5CV      -0.121300
     35 C34         -5.3600    -0.7790    -7.0100 ca         1 5CV      -0.099000
     36 C35         -6.3400     0.0850    -7.4630 ca         1 5CV      -0.130500
     37 C36         -7.4900     0.2770    -6.7200 ca         1 5CV      -0.113000
     38 C37         -7.6600    -0.3960    -5.5240 ca         1 5CV      -0.130500
     39 C38         -6.6830    -1.2640    -5.0730 ca         1 5CV      -0.099000
     40 H1           1.8940     0.0010    -0.9430 h4         1 5CV       0.156000
     41 H2          -0.2460     1.9910     4.4570 ha         1 5CV       0.156000
     42 H3          -2.4870    -0.9770    13.1310 h1         1 5CV       0.033033
     43 H4          -3.6750    -0.0390    14.0470 h1         1 5CV       0.033033
     44 H5          -3.6840    -1.8060    14.1360 h1         1 5CV       0.033033
     45 H6          -5.0080    -2.9850    12.7250 h1         1 5CV       0.033033
     46 H7          -6.1080    -2.0710    11.6830 h1         1 5CV       0.033033
     47 H8          -6.0690    -1.7520    13.4220 h1         1 5CV       0.033033
     48 H9          -4.7820     0.1290     9.3860 h1         1 5CV       0.043200
     49 H10         -3.3700    -0.6220    10.1420 h1         1 5CV       0.043200
     50 H11         -1.5260     2.1930     7.1740 ha         1 5CV       0.142000
     51 H13         -5.1510     0.8420    13.0280 h1         1 5CV       0.038200
     52 H14         -5.9920     0.1870    11.6160 h1         1 5CV       0.038200
     53 H15         -2.2530     2.1870    11.3770 hc         1 5CV       0.038367
     54 H16         -2.1720     0.4900    11.8690 hc         1 5CV       0.038367
     55 H17         -2.9730     1.6750    12.9090 hc         1 5CV       0.038367
     56 H18         -4.0580     3.0900    10.3190 hc         1 5CV       0.038367
     57 H19         -5.1250     2.9270    11.7200 hc         1 5CV       0.038367
     58 H20         -5.6130     2.2630    10.1550 hc         1 5CV       0.038367
     59 H21         -3.7930    -1.2790     8.2080 ha         1 5CV       0.137000
     60 H22         -3.2050    -2.3340     6.0690 ha         1 5CV       0.124000
     61 H23         -1.6800    -1.8750     3.6820 hn         1 5CV       0.297700
     62 H24         -1.7860    -0.0010     1.2230 ha         1 5CV       0.161000
     63 H25          3.0610     0.0000     1.1380 hn         1 5CV       0.341500
     64 H26         -0.5750     0.7610    -1.8630 hn         1 5CV       0.321500
     65 H27         -3.5400    -2.7990    -2.6460 h4         1 5CV       0.192000
     66 H28         -1.3850     0.7310    -3.8780 h4         1 5CV       0.045100
     67 H29         -3.9430    -2.8250    -6.1670 h1         1 5CV       0.069700
     68 H30         -4.9180    -3.1820    -4.7350 h1         1 5CV       0.069700
     69 H31         -4.4590    -0.9290    -7.5920 ha         1 5CV       0.134500
     70 H32         -6.2060     0.6110    -8.4000 ha         1 5CV       0.134000
     71 H33         -8.2570     0.9550    -7.0740 ha         1 5CV       0.133000
     72 H34         -8.5620    -0.2480    -4.9430 ha         1 5CV       0.134000
     73 H35         -6.8160    -1.7910    -4.1360 ha         1 5CV       0.134500
     74 O7           2.0760    -0.0040     3.3890 o          1 5CV      -0.630500
@<TRIPOS>BOND
     1    33    32 1
     2    33    34 1
     3    39    34 ar
     4    39    38 ar
     5    31    32 1
     6    31    30 2
     7    32    29 1
     8    34    35 ar
     9    38    37 ar
    10    29     7 2
    11    30     7 1
    12     7    27 1
    13    35    36 ar
    14    37    36 ar
    15    27    28 2
    16    27    26 1
    17    26     1 1
    18     8    14 1
    19     1    23 1
    20     1     2 2
    21     6    14 1
    22    14    15 1
    23    23    11 2
    24     2    25 1
    25     4     3 2
    26     4    13 1
    27    11     3 1
    28    11    24 1
    29    10    13 ar
    30    10     5 ar
    31     3    22 1
    32    13    12 ar
    33     9    19 1
    34     9    16 1
    35    25    24 1
    36    15    16 1
    37    24    74 2
    38    19     5 1
    39     5    20 ar
    40    22    12 1
    41    12    21 ar
    42    16    18 1
    43    16    17 1
    44    20    21 ar
    45     2    40 1
    46     4    41 1
    47     6    42 1
    48     6    43 1
    49     6    44 1
    50     8    45 1
    51     8    46 1
    52     8    47 1
    53     9    48 1
    54     9    49 1
    55    10    50 1
    56    15    51 1
    57    15    52 1
    58    17    53 1
    59    17    54 1
    60    17    55 1
    61    18    56 1
    62    18    57 1
    63    18    58 1
    64    20    59 1
    65    21    60 1
    66    22    61 1
    67    23    62 1
    68    25    63 1
    69    26    64 1
    70    29    65 1
    71    30    66 1
    72    33    67 1
    73    33    68 1
    74    35    69 1
    75    36    70 1
    76    37    71 1
    77    38    72 1
    78    39    73 1
@<TRIPOS>SUBSTRUCTURE
     1 5CV         1 TEMP              0 ****  ****    0 ROOT
