@<TRIPOS>MOLECULE
5CX
   37    38     1     0     0
SMALL
bcc


@<TRIPOS>ATOM
      1 S1           0.0000     0.0000     0.0000 sy         1 5CX       0.935200
      2 N1           1.6550     0.0000     0.0000 nz         1 5CX      -0.133500
      3 O2          -0.4010     0.0000     1.3630 o          1 5CX      -0.497800
      4 O3          -0.4010     0.9980    -0.9270 o          1 5CX      -0.497800
      5 C4          -0.5210    -1.5430    -0.6720 ca         1 5CX      -0.240500
      6 C5          -0.7200    -1.6690    -2.0360 ca         1 5CX       0.013500
      7 C6          -1.1230    -2.8770    -2.5680 ca         1 5CX      -0.115000
      8 C7          -1.3300    -3.9700    -1.7310 cp         1 5CX       0.109000
      9 C8          -1.1280    -3.8380    -0.3580 ca         1 5CX      -0.115000
     10 C9          -0.7260    -2.6260     0.1640 ca         1 5CX       0.013500
     11 C10         -1.7630    -5.2720    -2.2980 cp         1 5CX      -0.105000
     12 C11         -2.8490    -5.3270    -3.1700 ca         1 5CX      -0.066000
     13 C12         -3.2480    -6.5390    -3.6940 ca         1 5CX      -0.096000
     14 C13         -2.5720    -7.6980    -3.3560 ca         1 5CX      -0.060000
     15 C14         -1.4940    -7.6490    -2.4900 ca         1 5CX      -0.094000
     16 C15         -1.0820    -6.4410    -1.9650 ca         1 5CX      -0.052300
     17 C16          0.0930    -6.3880    -1.0230 c3         1 5CX      -0.026400
     18 C17         -0.2040    -7.2440     0.2100 c3         1 5CX       0.007900
     19 C18          1.3380    -6.9270    -1.7290 c3         1 5CX       0.007900
     20 H1           1.9890    -0.1150    -0.9370 hn         1 5CX       0.313133
     21 H2           1.9890     0.8690     0.3690 hn         1 5CX       0.313133
     22 H3          -0.5590    -0.8180    -2.6870 ha         1 5CX       0.124000
     23 H4          -1.2780    -2.9740    -3.6360 ha         1 5CX       0.142000
     24 H5          -1.2880    -4.6860     0.2980 ha         1 5CX       0.142000
     25 H6          -0.5690    -2.5220     1.2310 ha         1 5CX       0.124000
     26 H7          -3.3780    -4.4200    -3.4350 ha         1 5CX       0.109000
     27 H8          -4.0920    -6.5840    -4.3720 ha         1 5CX       0.116000
     28 H9          -2.8910    -8.6480    -3.7680 ha         1 5CX       0.114000
     29 H10         -0.9670    -8.5590    -2.2300 ha         1 5CX       0.121000
     30 H11          0.2660    -5.3630    -0.7180 hc         1 5CX       0.023700
     31 H12         -0.0680    -8.2910    -0.0360 hc         1 5CX       0.009700
     32 H13         -1.2260    -7.0780     0.5270 hc         1 5CX       0.009700
     33 H14          0.4720    -6.9710     1.0110 hc         1 5CX       0.009700
     34 H15          2.2120    -6.7340    -1.1180 hc         1 5CX       0.009700
     35 H16          1.4510    -6.4340    -2.6870 hc         1 5CX       0.009700
     36 H17          1.2330    -7.9940    -1.8830 hc         1 5CX       0.009700
     37 H131         1.9890    -0.7530     0.5690 hn         1 5CX       0.313133
@<TRIPOS>BOND
     1     1     2 1   
     2     1     3 2   
     3     1     4 2   
     4     1     5 1   
     5     2    20 1   
     6     2    21 1   
     7     2    37 1   
     8     5     6 ar  
     9     5    10 ar  
    10     6     7 ar  
    11     6    22 1   
    12     7     8 ar  
    13     7    23 1   
    14     8     9 ar  
    15     8    11 1   
    16     9    10 ar  
    17     9    24 1   
    18    10    25 1   
    19    11    12 ar  
    20    11    16 ar  
    21    12    13 ar  
    22    12    26 1   
    23    13    14 ar  
    24    13    27 1   
    25    14    15 ar  
    26    14    28 1   
    27    15    16 ar  
    28    15    29 1   
    29    16    17 1   
    30    17    18 1   
    31    17    19 1   
    32    17    30 1   
    33    18    31 1   
    34    18    32 1   
    35    18    33 1   
    36    19    34 1   
    37    19    35 1   
    38    19    36 1   
@<TRIPOS>SUBSTRUCTURE
     1 5CX         1 TEMP              0 ****  ****    0 ROOT
