@<TRIPOS>MOLECULE
molecule
   37    38     1     0     0
SMALL
bcc


@<TRIPOS>ATOM
      1 S1           0.0000     0.0000     0.0000 sy         1 5CX       1.225200
      2 N1           1.6550     0.0000     0.0000 nz         1 5CX      -0.806500
      3 O2          -0.4010     0.0000     1.3630 o          1 5CX      -0.522300
      4 O3          -0.4010     0.9980    -0.9270 o          1 5CX      -0.522300
      5 C4          -0.5210    -1.5430    -0.6720 ca         1 5CX      -0.352500
      6 C5          -0.7200    -1.6690    -2.0360 ca         1 5CX      -0.028500
      7 C6          -1.1230    -2.8770    -2.5680 ca         1 5CX      -0.129500
      8 C7          -1.3300    -3.9700    -1.7310 cp         1 5CX       0.093000
      9 C8          -1.1280    -3.8380    -0.3580 ca         1 5CX      -0.129500
     10 C9          -0.7260    -2.6260     0.1640 ca         1 5CX      -0.028500
     11 C10         -1.7630    -5.2720    -2.2980 cp         1 5CX      -0.101000
     12 C11         -2.8490    -5.3270    -3.1700 ca         1 5CX      -0.094000
     13 C12         -3.2480    -6.5390    -3.6940 ca         1 5CX      -0.125000
     14 C13         -2.5720    -7.6980    -3.3560 ca         1 5CX      -0.091000
     15 C14         -1.4940    -7.6490    -2.4900 ca         1 5CX      -0.120000
     16 C15         -1.0820    -6.4410    -1.9650 ca         1 5CX      -0.047300
     17 C16          0.0930    -6.3880    -1.0230 c3         1 5CX      -0.047400
     18 C17         -0.2040    -7.2440     0.2100 c3         1 5CX      -0.087100
     19 C18          1.3380    -6.9270    -1.7290 c3         1 5CX      -0.087100
     20 H1           1.9890    -0.1150    -0.9370 hn         1 5CX       0.491133
     21 H2           1.9890     0.8690     0.3690 hn         1 5CX       0.491133
     22 H3          -0.5590    -0.8180    -2.6870 ha         1 5CX       0.154000
     23 H4          -1.2780    -2.9740    -3.6360 ha         1 5CX       0.171500
     24 H5          -1.2880    -4.6860     0.2980 ha         1 5CX       0.171500
     25 H6          -0.5690    -2.5220     1.2310 ha         1 5CX       0.154000
     26 H7          -3.3780    -4.4200    -3.4350 ha         1 5CX       0.138000
     27 H8          -4.0920    -6.5840    -4.3720 ha         1 5CX       0.148000
     28 H9          -2.8910    -8.6480    -3.7680 ha         1 5CX       0.147000
     29 H10         -0.9670    -8.5590    -2.2300 ha         1 5CX       0.147000
     30 H11          0.2660    -5.3630    -0.7180 hc         1 5CX       0.041700
     31 H12         -0.0680    -8.2910    -0.0360 hc         1 5CX       0.042533
     32 H13         -1.2260    -7.0780     0.5270 hc         1 5CX       0.042533
     33 H14          0.4720    -6.9710     1.0110 hc         1 5CX       0.042533
     34 H15          2.2120    -6.7340    -1.1180 hc         1 5CX       0.042533
     35 H16          1.4510    -6.4340    -2.6870 hc         1 5CX       0.042533
     36 H17          1.2330    -7.9940    -1.8830 hc         1 5CX       0.042533
     37 H131         1.9890    -0.7530     0.5690 hn         1 5CX       0.491133
@<TRIPOS>BOND
     1    14    13 ar
     2    14    15 ar
     3    13    12 ar
     4    15    16 ar
     5    12    11 ar
     6    18    17 1
     7    16    11 ar
     8    16    17 1
     9    11     8 1
    10    17    19 1
    11     7     8 ar
    12     7     6 ar
    13     8     9 ar
    14     6     5 ar
    15     9    10 ar
    16     5    10 ar
    17     5     1 1
    18     2     1 1
    19     3     1 2
    20     1     4 2
    21     2    20 1
    22     2    21 1
    23     6    22 1
    24     7    23 1
    25     9    24 1
    26    10    25 1
    27    12    26 1
    28    13    27 1
    29    14    28 1
    30    15    29 1
    31    17    30 1
    32    18    31 1
    33    18    32 1
    34    18    33 1
    35    19    34 1
    36    19    35 1
    37    19    36 1
    38    37     2 1
@<TRIPOS>SUBSTRUCTURE
     1 5CX         1 TEMP              0 ****  ****    0 ROOT
