@<TRIPOS>MOLECULE
molecule
   74    77     1     0     0
SMALL
bcc


@<TRIPOS>ATOM
      1 N1           0.0000     0.0000     0.0000 nh         1 5CY      -0.117700
      2 O1          -2.2440     2.7740    -3.3030 oh         1 5CY      -0.602300
      3 C10          1.3680     0.0000     0.0000 ce         1 5CY       0.393600
      4 C11         -0.8210    -0.0060    -1.2130 c3         1 5CY       0.025800
      5 C12         -1.1130     1.4340    -1.6390 c3         1 5CY      -0.107400
      6 C13         -1.9710     1.4280    -2.9060 c3         1 5CY       0.146400
      7 C14         -0.5180    -0.0010     1.2940 ca         1 5CY      -0.038700
      8 C15         -1.8390    -0.0010     1.7420 ca         1 5CY      -0.119500
      9 C16         -2.1110    -0.0020     3.0940 ca         1 5CY      -0.091500
     10 C17         -1.0780    -0.0010     4.0150 ca         1 5CY      -0.116000
     11 C18          0.2350     0.0000     3.5770 ca         1 5CY      -0.079500
     12 C19          0.5100     0.0000     2.2280 ca         1 5CY      -0.118800
     13 O2           9.2250     2.4230    -7.8550 oh         1 5CY      -0.602300
     14 C2           8.7320    -0.1940    -1.4810 c3         1 5CY      -0.017000
     15 N2           8.8700    -0.1660    -3.7560 nh         1 5CY      -0.449300
     16 C20          1.8050     0.0000     1.4490 c3         1 5CY      -0.096500
     17 C21          2.6180     1.2580     1.7630 c3         1 5CY      -0.076600
     18 C22          2.6190    -1.2570     1.7640 c3         1 5CY      -0.076600
     19 C23          8.5150    -0.1140    -5.1760 c3         1 5CY       0.203300
     20 C24          9.0730     1.1690    -5.7940 c3         1 5CY      -0.107400
     21 C25          8.7030     1.2240    -7.2780 c3         1 5CY       0.146400
     22 C26         10.1500    -0.2760    -3.3120 ca         1 5CY       0.088100
     23 C27         11.3640    -0.3600    -4.0090 ca         1 5CY      -0.119500
     24 C28         12.5500    -0.4650    -3.3160 ca         1 5CY      -0.091500
     25 C29         12.5560    -0.4900    -1.9320 ca         1 5CY      -0.116000
     26 C3           8.3100    -1.4360    -0.6910 c3         1 5CY      -0.076600
     27 C30         11.3630    -0.4080    -1.2320 ca         1 5CY      -0.079500
     28 C31         10.1770    -0.3020    -1.9130 ca         1 5CY      -0.118800
     29 C4           7.9820    -0.1120    -2.7950 c2         1 5CY       0.254800
     30 C5           6.5930     0.0000    -2.9540 ce         1 5CY      -0.321000
     31 C6           5.7790     0.0000    -1.8580 ce         1 5CY       0.084500
     32 C7           4.3860     0.0010    -2.0190 cf         1 5CY      -0.295000
     33 C8           3.5730    -0.0000    -0.9240 cf         1 5CY       0.084500
     34 C9           2.1750     0.0000    -1.0850 ce         1 5CY      -0.407600
     35 H1           8.0140     1.8190    -1.2610 hc         1 5CY       0.053950
     36 H2           9.4630     1.4550    -0.3140 hc         1 5CY       0.053950
     37 H3           7.8890     0.8370     0.2050 hc         1 5CY       0.053950
     38 H4          -2.8370     2.7710    -4.0360 ho         1 5CY       0.416500
     39 H5          -0.2880    -0.5160    -2.0070 h1         1 5CY       0.075200
     40 H6          -1.7530    -0.5200    -1.0150 h1         1 5CY       0.075200
     41 H7          -0.1810     1.9480    -1.8360 hc         1 5CY       0.071200
     42 H8          -1.6460     1.9440    -0.8450 hc         1 5CY       0.071200
     43 H9          -1.4380     0.9180    -3.6990 h1         1 5CY       0.024200
     44 H10         -2.9030     0.9130    -2.7080 h1         1 5CY       0.024200
     45 H11         -2.6530    -0.0010     1.0270 ha         1 5CY       0.144500
     46 H12         -3.1380    -0.0030     3.4370 ha         1 5CY       0.154000
     47 H13         -1.2970    -0.0020     5.0760 ha         1 5CY       0.153000
     48 H14          1.0450     0.0010     4.2960 ha         1 5CY       0.146000
     49 H15          9.0580     2.4240    -8.7830 ho         1 5CY       0.416500
     50 H16          2.1700     1.7780     2.6010 hc         1 5CY       0.053950
     51 H17          2.6260     1.9080     0.8970 hc         1 5CY       0.053950
     52 H18          3.6340     0.9780     2.0140 hc         1 5CY       0.053950
     53 H19          2.4560    -1.9960     0.9890 hc         1 5CY       0.053950
     54 H20          3.6720    -1.0040     1.8050 hc         1 5CY       0.053950
     55 H21          2.3070    -1.6600     2.7200 hc         1 5CY       0.053950
     56 H22          8.9360    -0.9730    -5.6860 h1         1 5CY       0.075200
     57 H23          7.4370    -0.1260    -5.2800 h1         1 5CY       0.075200
     58 H24          8.6510     2.0270    -5.2850 hc         1 5CY       0.071200
     59 H25         10.1510     1.1820    -5.6890 hc         1 5CY       0.071200
     60 H26          7.6250     1.2120    -7.3830 h1         1 5CY       0.024200
     61 H27          9.1250     0.3650    -7.7870 h1         1 5CY       0.024200
     62 H28         11.3690    -0.3410    -5.0920 ha         1 5CY       0.144500
     63 H29         13.4850    -0.5300    -3.8590 ha         1 5CY       0.154000
     64 H30         13.4940    -0.5740    -1.3960 ha         1 5CY       0.153000
     65 H31          9.1880    -1.9130    -0.2730 hc         1 5CY       0.053950
     66 H32          7.6420    -1.1450     0.1100 hc         1 5CY       0.053950
     67 H33          7.8020    -2.1290    -1.3510 hc         1 5CY       0.053950
     68 H34         11.3670    -0.4270    -0.1490 ha         1 5CY       0.146000
     69 H36          6.1610     0.0010    -3.9470 ha         1 5CY       0.158000
     70 H37          6.2080    -0.0870    -0.8660 ha         1 5CY       0.132500
     71 H38          3.9550     0.0010    -3.0130 ha         1 5CY       0.152000
     72 H39          4.0030    -0.0010     0.0700 ha         1 5CY       0.132500
     73 H40          1.7450     0.0000    -2.0800 ha         1 5CY       0.158000
     74 C1           8.5080     1.0720    -0.6520 c3         1 5CY      -0.076600
@<TRIPOS>BOND
     1     4     5 1
     2     4     1 1
     3     5     6 1
     4     8     9 ar
     5     8     7 ar
     6     6     2 1
     7     9    10 ar
     8     1     7 1
     9     1     3 2
    10     7    12 ar
    11    10    11 ar
    12    34     3 1
    13    34    33 2
    14     3    16 1
    15    12    11 ar
    16    12    16 1
    17    32    33 1
    18    32    31 2
    19    17    16 1
    20    19    20 1
    21    19    15 1
    22    16    18 1
    23    20    21 1
    24    13    21 1
    25    30    31 1
    26    30    29 2
    27    15    29 1
    28    15    22 1
    29    29    14 1
    30    22    23 ar
    31    22    28 ar
    32    23    24 ar
    33    74    14 1
    34    14    28 1
    35    14    26 1
    36    28    27 ar
    37    24    25 ar
    38    27    25 ar
    39    74    35 1
    40    74    36 1
    41    74    37 1
    42     2    38 1
    43     4    39 1
    44     4    40 1
    45     5    41 1
    46     5    42 1
    47     6    43 1
    48     6    44 1
    49     8    45 1
    50     9    46 1
    51    10    47 1
    52    11    48 1
    53    13    49 1
    54    17    50 1
    55    17    51 1
    56    17    52 1
    57    18    53 1
    58    18    54 1
    59    18    55 1
    60    19    56 1
    61    19    57 1
    62    20    58 1
    63    20    59 1
    64    21    60 1
    65    21    61 1
    66    23    62 1
    67    24    63 1
    68    25    64 1
    69    26    65 1
    70    26    66 1
    71    26    67 1
    72    27    68 1
    73    30    69 1
    74    31    70 1
    75    32    71 1
    76    33    72 1
    77    34    73 1
@<TRIPOS>SUBSTRUCTURE
     1 5CY         1 TEMP              0 ****  ****    0 ROOT
