@<TRIPOS>MOLECULE
5CY
   74    81     1     0     0
SMALL
bcc


@<TRIPOS>ATOM
      1 N1           0.0000     0.0000     0.0000 nh         1 5CY       0.312000
      2 O1          -2.2440     2.7740    -3.3030 oh         1 5CY      -0.315000
      3 C10          1.3680     0.0000     0.0000 c2         1 5CY      -0.014000
      4 C11         -0.8210    -0.0060    -1.2130 c3         1 5CY      -0.116000
      5 C12         -1.1130     1.4340    -1.6390 c3         1 5CY      -0.139000
      6 C13         -1.9710     1.4280    -2.9060 c3         1 5CY       0.084000
      7 C14         -0.5180    -0.0010     1.2940 ca         1 5CY      -0.152000
      8 C15         -1.8390    -0.0010     1.7420 ca         1 5CY      -0.082000
      9 C16         -2.1110    -0.0020     3.0940 ca         1 5CY      -0.066000
     10 C17         -1.0780    -0.0010     4.0150 ca         1 5CY      -0.081000
     11 C18          0.2350     0.0000     3.5770 ca         1 5CY      -0.045000
     12 C19          0.5100     0.0000     2.2280 ca         1 5CY      -0.111000
     13 O2           9.2250     2.4230    -7.8550 oh         1 5CY      -0.315000
     14 C2           8.7320    -0.1940    -1.4810 c3         1 5CY      -0.021000
     15 N2           8.8700    -0.1660    -3.7560 nh         1 5CY       0.407000
     16 C20          1.8050     0.0000     1.4490 c3         1 5CY       0.019000
     17 C21          2.6180     1.2580     1.7630 c3         1 5CY      -0.101000
     18 C22          2.6190    -1.2570     1.7640 c3         1 5CY      -0.101000
     19 C23          8.5150    -0.1140    -5.1760 c3         1 5CY      -0.147000
     20 C24          9.0730     1.1690    -5.7940 c3         1 5CY      -0.140000
     21 C25          8.7030     1.2240    -7.2780 c3         1 5CY       0.086000
     22 C26         10.1500    -0.2760    -3.3120 ca         1 5CY      -0.202000
     23 C27         11.3640    -0.3600    -4.0090 ca         1 5CY      -0.060000
     24 C28         12.5500    -0.4650    -3.3160 ca         1 5CY      -0.069000
     25 C29         12.5560    -0.4900    -1.9320 ca         1 5CY      -0.064000
     26 C3           8.3100    -1.4360    -0.6910 c3         1 5CY      -0.102000
     27 C30         11.3630    -0.4080    -1.2320 ca         1 5CY      -0.044000
     28 C31         10.1770    -0.3020    -1.9130 ca         1 5CY      -0.103000
     29 C4           7.9820    -0.1120    -2.7950 c3         1 5CY       0.005000
     30 C5           6.5930     0.0000    -2.9540 c2         1 5CY      -0.331000
     31 C6           5.7790     0.0000    -1.8580 c3         1 5CY      -0.178000
     32 C7           4.3860     0.0010    -2.0190 c3         1 5CY      -0.101000
     33 C8           3.5730    -0.0000    -0.9240 c2         1 5CY      -0.352000
     34 C9           2.1750     0.0000    -1.0850 c3         1 5CY      -0.269000
     35 H1           8.6700     1.9440    -1.2740 hc         1 5CY       0.062500
     36 H2           7.4930     1.0810    -0.2740 hc         1 5CY       0.062500
     37 H3           9.2030     1.0870     0.1790 hc         1 5CY       0.062500
     38 H4          -2.8950     2.7740    -3.9850 ho         1 5CY       0.202000
     39 H5          -1.7530    -0.5210    -1.0150 h1         1 5CY       0.085500
     40 H6          -0.2880    -0.5160    -2.0070 h1         1 5CY       0.085500
     41 H7          -1.6460     1.9440    -0.8450 hc         1 5CY       0.073000
     42 H8          -0.1810     1.9480    -1.8360 hc         1 5CY       0.073000
     43 H9          -1.4380     0.9180    -3.7000 h1         1 5CY       0.028000
     44 H10         -2.9030     0.9130    -2.7080 h1         1 5CY       0.028000
     45 H11         -2.6530    -0.0010     1.0270 ha         1 5CY       0.113000
     46 H12         -3.1380    -0.0030     3.4370 ha         1 5CY       0.118000
     47 H13         -1.2970    -0.0020     5.0760 ha         1 5CY       0.119000
     48 H14          1.0450     0.0010     4.2960 ha         1 5CY       0.115000
     49 H15          9.0530     2.4260    -8.7820 ho         1 5CY       0.203000
     50 H16          3.6640     1.0750     1.5470 hc         1 5CY       0.058833
     51 H17          2.5040     1.5090     2.8110 hc         1 5CY       0.058833
     52 H18          2.2620     2.0800     1.1540 hc         1 5CY       0.058833
     53 H19          2.6360    -1.4180     2.8350 hc         1 5CY       0.058833
     54 H20          2.1660    -2.1120     1.2770 hc         1 5CY       0.058833
     55 H21          3.6330    -1.1310     1.4020 hc         1 5CY       0.058833
     56 H22          8.9360    -0.9730    -5.6860 h1         1 5CY       0.103500
     57 H23          7.4370    -0.1260    -5.2800 h1         1 5CY       0.103500
     58 H24          8.6510     2.0270    -5.2850 hc         1 5CY       0.075000
     59 H25         10.1510     1.1810    -5.6900 hc         1 5CY       0.075000
     60 H26          9.1250     0.3660    -7.7870 h1         1 5CY       0.029500
     61 H27          7.6250     1.2120    -7.3830 h1         1 5CY       0.029500
     62 H28         11.3690    -0.3410    -5.0920 ha         1 5CY       0.121000
     63 H29         13.4850    -0.5300    -3.8590 ha         1 5CY       0.122000
     64 H30         13.4940    -0.5740    -1.3970 ha         1 5CY       0.121000
     65 H31          9.1230    -1.7460    -0.0450 hc         1 5CY       0.062500
     66 H32          7.4390    -1.2030    -0.0900 hc         1 5CY       0.062500
     67 H33          8.0700    -2.2380    -1.3790 hc         1 5CY       0.062500
     68 H34         11.3670    -0.4270    -0.1490 ha         1 5CY       0.119000
     69 H36          7.2150     0.8550    -2.7190 DU         1 5CY       0.096000
     70 H37          5.2230     0.9110    -2.0420 DU         1 5CY       0.299000
     71 H38          4.9720    -0.8740    -1.7660 DU         1 5CY       0.299000
     72 H39          2.9860     0.8750    -1.1790 DU         1 5CY       0.300000
     73 H40          1.7450     0.0000    -2.0800 hc         1 5CY       0.148000
     74 C1           8.5080     1.0720    -0.6520 c3         1 5CY      -0.102000
@<TRIPOS>BOND
     1     1     3 1   
     2     1     4 1   
     3     1     7 1   
     4     2     6 1   
     5     2    38 1   
     6     3    16 1   
     7     3    34 1   
     8     4     5 1   
     9     4    39 1   
    10     4    40 1   
    11     5     6 1   
    12     5    41 1   
    13     5    42 1   
    14     6    43 1   
    15     6    44 1   
    16     7     8 1   
    17     7    12 1   
    18     8     9 1   
    19     8    45 1   
    20     9    10 1   
    21     9    46 1   
    22    10    11 1   
    23    10    47 1   
    24    11    12 1   
    25    11    48 1   
    26    12    16 1   
    27    13    21 1   
    28    13    49 1   
    29    14    26 1   
    30    14    28 1   
    31    14    29 1   
    32    14    74 1   
    33    15    19 1   
    34    15    22 1   
    35    15    29 1   
    36    16    17 1   
    37    16    18 1   
    38    17    50 1   
    39    17    51 1   
    40    17    52 1   
    41    18    53 1   
    42    18    54 1   
    43    18    55 1   
    44    19    20 1   
    45    19    56 1   
    46    19    57 1   
    47    20    21 1   
    48    20    58 1   
    49    20    59 1   
    50    21    60 1   
    51    21    61 1   
    52    22    23 1   
    53    22    28 1   
    54    23    24 1   
    55    23    62 1   
    56    24    25 1   
    57    24    63 1   
    58    25    27 1   
    59    25    64 1   
    60    26    65 1   
    61    26    66 1   
    62    26    67 1   
    63    27    28 1   
    64    27    68 1   
    65    29    30 1   
    66    29    69 1   
    67    30    31 1   
    68    30    69 1   
    69    31    32 1   
    70    31    70 1   
    71    31    71 1   
    72    32    33 1   
    73    32    70 1   
    74    32    71 1   
    75    33    34 1   
    76    33    72 1   
    77    34    72 1   
    78    34    73 1   
    79    35    74 1   
    80    36    74 1   
    81    37    74 1   
@<TRIPOS>SUBSTRUCTURE
     1 5CY         1 TEMP              0 ****  ****    0 ROOT
