@<TRIPOS>MOLECULE
molecule
   49    52     1     0     0
SMALL
bcc


@<TRIPOS>ATOM
      1 C2           0.0000     0.0000     0.0000 ca         1 5CZ      -0.075800
      2 C3           1.3960     0.0000     0.0000 ca         1 5CZ      -0.069000
      3 C7          -0.6940     0.0010     1.2110 ca         1 5CZ      -0.069000
      4 C8          -0.7420     0.0060    -1.2780 cc         1 5CZ       0.045700
      5 C9          -2.0940     0.0140    -1.4020 cd         1 5CZ      -0.181200
      6 C10         -2.4010     0.0180    -2.7850 ca         1 5CZ      -0.052800
      7 C11         -1.1740     0.0130    -3.4770 ca         1 5CZ      -0.060200
      8 C20          3.4210     0.1270     3.5260 ca         1 5CZ       0.170100
      9 C21          4.2310    -0.9360     3.9050 ca         1 5CZ      -0.134000
     10 C22          5.6020    -0.8090     3.8650 ca         1 5CZ      -0.069000
     11 C24          5.3620     1.4560     3.0610 ca         1 5CZ      -0.069000
     12 N29          8.4100    -0.4670     3.7530 n2         1 5CZ      -0.674100
     13 C30         -3.6070     0.0250    -3.5000 ca         1 5CZ      -0.050000
     14 C31         -3.5910     0.0280    -4.8620 ca         1 5CZ      -0.165000
     15 C32         -2.3750     0.0230    -5.5570 ca         1 5CZ      -0.194900
     16 C33         -1.1680     0.0160    -4.8640 ca         1 5CZ      -0.027000
     17 C34         -2.3740     0.0250    -7.0360 ce         1 5CZ       0.552800
     18 C4           2.0840     0.0000     1.1940 ca         1 5CZ      -0.169000
     19 C5           1.3900     0.0010     2.3970 ca         1 5CZ       0.140100
     20 C6           0.0010     0.0010     2.4020 ca         1 5CZ      -0.169000
     21 N12         -0.1700     0.0120    -2.5300 na         1 5CZ      -0.159400
     22 O19          2.0710     0.0000     3.5730 os         1 5CZ      -0.231200
     23 C23          6.1790     0.3900     3.4420 ca         1 5CZ      -0.205900
     24 C25          3.9920     1.3230     3.1050 ca         1 5CZ      -0.134000
     25 C26          7.6500     0.5310     3.3980 ce         1 5CZ       0.539800
     26 N27          8.2170     1.7150     2.9810 nz         1 5CZ      -0.800600
     27 N35         -1.2440     0.0210    -7.6860 n2         1 5CZ      -0.702100
     28 N38         -3.5670     0.0330    -7.7260 nz         1 5CZ      -0.800600
     29 H1           1.9380    -0.0010    -0.9380 ha         1 5CZ       0.142500
     30 H2          -1.7770     0.0020     1.2160 ha         1 5CZ       0.142500
     31 H3          -2.8080    -0.0640    -0.5910 ha         1 5CZ       0.174000
     32 H4           3.7840    -1.8670     4.2330 ha         1 5CZ       0.175500
     33 H5           6.2320    -1.6390     4.1610 ha         1 5CZ       0.146000
     34 H6           5.8060     2.3890     2.7330 ha         1 5CZ       0.146000
     35 H7           9.4060    -0.3730     3.7230 hn         1 5CZ       0.438400
     36 H8          -4.5520     0.0290    -2.9690 ha         1 5CZ       0.159000
     37 H9          -4.5250     0.0340    -5.4110 ha         1 5CZ       0.106000
     38 H10         -0.2300     0.0120    -5.4050 ha         1 5CZ       0.162000
     39 H11          3.1670    -0.0000     1.1950 ha         1 5CZ       0.153000
     40 H12         -0.5370     0.0020     3.3420 ha         1 5CZ       0.153000
     41 H13          0.8120     0.0140    -2.7210 hn         1 5CZ       0.311700
     42 H14          3.3580     2.1500     2.8100 ha         1 5CZ       0.175500
     43 H15          9.2140     1.6370     3.0120 hn         1 5CZ       0.466467
     44 H16          7.9280     1.9110     2.0430 hn         1 5CZ       0.466467
     45 H17         -1.2410     0.0230    -8.6870 hn         1 5CZ       0.432400
     46 H18         -4.0870     0.8530    -7.4840 hn         1 5CZ       0.466133
     47 H19         -3.3830     0.0340    -8.7100 hn         1 5CZ       0.466133
     48 H273         7.9170     2.4580     3.5800 hn         1 5CZ       0.466467
     49 H383        -4.1000    -0.7780    -7.4810 hn         1 5CZ       0.466133
@<TRIPOS>BOND
     1    27    17 2
     2    17    28 1
     3    17    15 1
     4    15    14 ar
     5    15    16 ar
     6    14    13 ar
     7    16     7 ar
     8    13     6 ar
     9     7     6 ar
    10     7    21 1
    11     6     5 1
    12    21     4 1
    13     5     4 2
    14     4     1 1
    15     1     3 ar
    16     1     2 ar
    17     3    20 ar
    18     2    18 ar
    19    20    19 ar
    20    18    19 ar
    21    19    22 1
    22    22     8 1
    23     8     9 ar
    24     8    24 ar
    25     9    10 ar
    26    24    11 ar
    27    10    23 ar
    28    11    23 ar
    29    23    25 1
    30    25    12 2
    31    25    26 1
    32     2    29 1
    33     3    30 1
    34     5    31 1
    35     9    32 1
    36    10    33 1
    37    11    34 1
    38    12    35 1
    39    13    36 1
    40    14    37 1
    41    16    38 1
    42    18    39 1
    43    20    40 1
    44    21    41 1
    45    24    42 1
    46    26    43 1
    47    26    44 1
    48    27    45 1
    49    28    46 1
    50    28    47 1
    51    48    26 1
    52    49    28 1
@<TRIPOS>SUBSTRUCTURE
     1 5CZ         1 TEMP              0 ****  ****    0 ROOT
