@<TRIPOS>MOLECULE
5CZ
   49    52     1     0     0
SMALL
bcc


@<TRIPOS>ATOM
      1 C2           0.0000     0.0000     0.0000 ca         1 5CZ      -0.066800
      2 C3           1.3960     0.0000     0.0000 ca         1 5CZ      -0.042500
      3 C7          -0.6940     0.0010     1.2110 ca         1 5CZ      -0.042500
      4 C8          -0.7420     0.0060    -1.2780 cc         1 5CZ      -0.145300
      5 C9          -2.0940     0.0140    -1.4020 cd         1 5CZ      -0.142200
      6 C10         -2.4010     0.0180    -2.7850 ca         1 5CZ      -0.060800
      7 C11         -1.1740     0.0130    -3.4770 ca         1 5CZ      -0.243200
      8 C20          3.4210     0.1270     3.5260 ca         1 5CZ       0.176100
      9 C21          4.2310    -0.9360     3.9050 ca         1 5CZ      -0.098000
     10 C22          5.6020    -0.8090     3.8650 ca         1 5CZ      -0.052500
     11 C24          5.3620     1.4560     3.0610 ca         1 5CZ      -0.052500
     12 N29          8.4100    -0.4670     3.7530 n2         1 5CZ      -0.476100
     13 C30         -3.6070     0.0250    -3.5000 ca         1 5CZ       0.010000
     14 C31         -3.5910     0.0280    -4.8620 ca         1 5CZ      -0.143000
     15 C32         -2.3750     0.0230    -5.5570 ca         1 5CZ      -0.226900
     16 C33         -1.1680     0.0160    -4.8640 ca         1 5CZ      -0.021000
     17 C34         -2.3740     0.0250    -7.0360 ce         1 5CZ       0.226800
     18 C4           2.0840     0.0000     1.1940 ca         1 5CZ      -0.151500
     19 C5           1.3900     0.0010     2.3970 ca         1 5CZ       0.144100
     20 C6           0.0010     0.0010     2.4020 ca         1 5CZ      -0.151500
     21 N12         -0.1700     0.0120    -2.5300 na         1 5CZ       0.389600
     22 O19          2.0710     0.0000     3.5730 os         1 5CZ      -0.207200
     23 C23          6.1790     0.3900     3.4420 ca         1 5CZ      -0.242900
     24 C25          3.9920     1.3230     3.1050 ca         1 5CZ      -0.098000
     25 C26          7.6500     0.5310     3.3980 ce         1 5CZ       0.207800
     26 N27          8.2170     1.7150     2.9810 nz         1 5CZ       0.192400
     27 N35         -1.2440     0.0210    -7.6860 n2         1 5CZ      -0.510100
     28 N38         -3.5670     0.0330    -7.7260 nz         1 5CZ       0.189400
     29 H1           1.9380    -0.0010    -0.9380 ha         1 5CZ       0.110000
     30 H2          -1.7770     0.0020     1.2160 ha         1 5CZ       0.110000
     31 H3          -2.8080    -0.0640    -0.5910 ha         1 5CZ       0.149000
     32 H4           3.7840    -1.8670     4.2330 ha         1 5CZ       0.141500
     33 H5           6.2320    -1.6390     4.1610 ha         1 5CZ       0.102500
     34 H6           5.8060     2.3890     2.7330 ha         1 5CZ       0.102500
     35 H7           8.0000    -1.3280     4.0560 hn         1 5CZ       0.381400
     36 H8          -4.5520     0.0290    -2.9690 ha         1 5CZ       0.123000
     37 H9          -4.5250     0.0340    -5.4110 ha         1 5CZ       0.087000
     38 H10         -0.2300     0.0120    -5.4040 ha         1 5CZ       0.103000
     39 H11          3.1670    -0.0000     1.1950 ha         1 5CZ       0.125000
     40 H12         -0.5370     0.0020     3.3420 ha         1 5CZ       0.125000
     41 H13          0.8120     0.0140    -2.7210 hn         1 5CZ       0.125700
     42 H14          3.3580     2.1500     2.8100 ha         1 5CZ       0.141500
     43 H15          7.9280     1.9110     2.0430 hn         1 5CZ       0.222133
     44 H16          9.2140     1.6360     3.0120 hn         1 5CZ       0.222133
     45 H17         -0.3770     0.0150    -7.1860 hn         1 5CZ       0.375400
     46 H18         -4.0960    -0.7820    -7.4870 hn         1 5CZ       0.223133
     47 H19         -3.3830     0.0340    -8.7100 hn         1 5CZ       0.223133
     48 H273         7.9180     2.4580     3.5800 hn         1 5CZ       0.222133
     49 H383        -4.0840     0.8570    -7.4900 hn         1 5CZ       0.223133
@<TRIPOS>BOND
     1     1     2 ar  
     2     1     3 ar  
     3     1     4 1   
     4     2    18 ar  
     5     2    29 1   
     6     3    20 ar  
     7     3    30 1   
     8     4     5 2   
     9     4    21 1   
    10     5     6 1   
    11     5    31 1   
    12     6     7 ar  
    13     6    13 ar  
    14     7    16 ar  
    15     7    21 1   
    16     8     9 ar  
    17     8    22 1   
    18     8    24 ar  
    19     9    10 ar  
    20     9    32 1   
    21    10    23 ar  
    22    10    33 1   
    23    11    23 ar  
    24    11    24 ar  
    25    11    34 1   
    26    12    25 2   
    27    12    35 1   
    28    13    14 ar  
    29    13    36 1   
    30    14    15 ar  
    31    14    37 1   
    32    15    16 ar  
    33    15    17 1   
    34    16    38 1   
    35    17    27 2   
    36    17    28 1   
    37    18    19 ar  
    38    18    39 1   
    39    19    20 ar  
    40    19    22 1   
    41    20    40 1   
    42    21    41 1   
    43    23    25 1   
    44    24    42 1   
    45    25    26 1   
    46    26    43 1   
    47    26    44 1   
    48    26    48 1   
    49    27    45 1   
    50    28    46 1   
    51    28    47 1   
    52    28    49 1   
@<TRIPOS>SUBSTRUCTURE
     1 5CZ         1 TEMP              0 ****  ****    0 ROOT
