@<TRIPOS>MOLECULE
molecule
   63    66     1     0     0
SMALL
bcc


@<TRIPOS>ATOM
      1 C1           0.0000     0.0000     0.0000 c3         1 5D0       0.137900
      2 C2           1.5300     0.0000     0.0000 c3         1 5D0      -0.080400
      3 C3           2.0400     0.0000     1.4430 c3         1 5D0      -0.079400
      4 C8           6.1250    -0.0010     4.0960 ca         1 5D0       0.155600
      5 C9           5.3660    -0.0070     5.2610 ca         1 5D0      -0.199250
      6 C10          5.9880    -0.0130     6.4890 ca         1 5D0      -0.059250
      7 C11          7.3810    -0.0120     6.5650 ca         1 5D0      -0.169400
      8 C12          8.1400    -0.0070     5.3930 ca         1 5D0      -0.059250
      9 C13          7.5120    -0.0010     4.1670 ca         1 5D0      -0.199250
     10 C14         -1.8220     0.0010    -1.5250 ca         1 5D0       0.155600
     11 C15         -2.3510     0.0010    -2.8100 ca         1 5D0      -0.199250
     12 C16         -3.7170     0.0010    -2.9950 ca         1 5D0      -0.059250
     13 C19         -2.6670    -0.0050    -0.4230 ca         1 5D0      -0.199250
     14 C20          8.0530    -0.0180     7.8830 ce         1 5D0       0.700800
     15 C21         -6.0350    -0.0000    -2.0840 ce         1 5D0       0.700800
     16 N23         -6.8530    -0.0010    -0.9750 nu         1 5D0      -0.930200
     17 N25          7.3270    -0.0240     8.9530 n2         1 5D0      -0.719400
     18 C27         -8.7510    -0.4710    -2.4050 c3         1 5D0      -0.143400
     19 C30          9.3260    -0.4990    10.3010 c3         1 5D0      -0.143400
     20 C31          7.8770    -0.0090    10.3040 c3         1 5D0       0.139800
     21 C4           3.5700    -0.0000     1.4440 c3         1 5D0      -0.080400
     22 C5           4.0800    -0.0000     2.8860 c3         1 5D0       0.137900
     23 O6           5.5090    -0.0010     2.8870 os         1 5D0      -0.328900
     24 O7          -0.4760     0.0010    -1.3470 os         1 5D0      -0.328900
     25 C17         -4.5690     0.0010    -1.8890 ca         1 5D0      -0.169400
     26 C18         -4.0330    -0.0060    -0.6000 ca         1 5D0      -0.059250
     27 N22         -6.5050    -0.0060    -3.2870 n2         1 5D0      -0.719400
     28 N24          9.4300    -0.0240     7.9280 nu         1 5D0      -0.930200
     29 C26         -7.9290     0.0130    -3.6010 c3         1 5D0       0.139800
     30 C28         -8.2850     0.2850    -1.1530 c3         1 5D0       0.230300
     31 C29         10.0960     0.2560     9.2100 c3         1 5D0       0.230300
     32 H1          -0.3610    -0.8850     0.5100 h1         1 5D0       0.036950
     33 H2          -0.3610     0.8840     0.5110 h1         1 5D0       0.036950
     34 H3           1.8910    -0.8850    -0.5110 hc         1 5D0       0.059200
     35 H4           1.8910     0.8850    -0.5110 hc         1 5D0       0.059200
     36 H5           1.6790     0.8840     1.9540 hc         1 5D0       0.044700
     37 H6           1.6790    -0.8840     1.9540 hc         1 5D0       0.044700
     38 H7           4.2840    -0.0070     5.2020 ha         1 5D0       0.141500
     39 H8           5.3960    -0.0170     7.3960 ha         1 5D0       0.145000
     40 H9           9.2220    -0.0070     5.4480 ha         1 5D0       0.145000
     41 H10          8.1000     0.0030     3.2570 ha         1 5D0       0.141500
     42 H11         -1.6890     0.0030    -3.6680 ha         1 5D0       0.141500
     43 H12         -4.1290     0.0000    -3.9960 ha         1 5D0       0.145000
     44 H13         -2.2510    -0.0070     0.5770 ha         1 5D0       0.141500
     45 H15         -6.4800    -0.1930    -0.0660 hn         1 5D0       0.433800
     46 H17         -9.8010    -0.2700    -2.5810 hc         1 5D0       0.057200
     47 H18         -8.5970    -1.5340    -2.2650 hc         1 5D0       0.057200
     48 H19          9.2950    -1.5350     9.9870 hc         1 5D0       0.057200
     49 H20          9.7540    -0.1830    11.2450 hc         1 5D0       0.057200
     50 H21          7.8440     1.0020    10.6900 h1         1 5D0       0.059950
     51 H22          7.2830    -0.6580    10.9360 h1         1 5D0       0.059950
     52 H23          3.9310     0.8840     0.9330 hc         1 5D0       0.059200
     53 H24          3.9310    -0.8840     0.9330 hc         1 5D0       0.059200
     54 H25          3.7190     0.8850     3.3960 h1         1 5D0       0.036950
     55 H26          3.7180    -0.8840     3.3960 h1         1 5D0       0.036950
     56 H27         -4.6920    -0.0090     0.2610 ha         1 5D0       0.145000
     57 H30          9.9670    -0.2160     7.1060 hn         1 5D0       0.433800
     58 H31         -8.0710    -0.7290    -4.3780 h1         1 5D0       0.059950
     59 H32         -8.1880     1.0560    -3.7360 h1         1 5D0       0.059950
     60 H33         -8.4320     1.3490    -1.2910 h1         1 5D0       0.043200
     61 H34         -8.8390    -0.0600    -0.2890 h1         1 5D0       0.043200
     62 H35         11.1210    -0.0930     9.1750 h1         1 5D0       0.043200
     63 H36         10.0690     1.3200     9.4120 h1         1 5D0       0.043200
@<TRIPOS>BOND
     1    19    31 1
     2    19    20 1
     3    31    28 1
     4    29    27 1
     5    29    18 1
     6    20    17 1
     7    27    15 2
     8    28    14 1
     9    17    14 2
    10    18    30 1
    11    14     7 1
    12    26    13 ar
    13    26    25 ar
    14     6     7 ar
    15     6     5 ar
    16    13    10 ar
    17     7     8 ar
    18    15    25 1
    19    15    16 1
    20     5     4 ar
    21    25    12 ar
    22    30    16 1
    23     8     9 ar
    24     4     9 ar
    25     4    23 1
    26    10    24 1
    27    10    11 ar
    28     3     2 1
    29     3    21 1
    30     1    24 1
    31     1     2 1
    32    23    22 1
    33    22    21 1
    34    12    11 ar
    35     1    32 1
    36     1    33 1
    37     2    34 1
    38     2    35 1
    39     3    36 1
    40     3    37 1
    41     5    38 1
    42     6    39 1
    43     8    40 1
    44     9    41 1
    45    11    42 1
    46    12    43 1
    47    13    44 1
    48    16    45 1
    49    18    46 1
    50    18    47 1
    51    19    48 1
    52    19    49 1
    53    20    50 1
    54    20    51 1
    55    21    52 1
    56    21    53 1
    57    22    54 1
    58    22    55 1
    59    26    56 1
    60    28    57 1
    61    29    58 1
    62    29    59 1
    63    30    60 1
    64    30    61 1
    65    31    62 1
    66    31    63 1
@<TRIPOS>SUBSTRUCTURE
     1 5D0         1 TEMP              0 ****  ****    0 ROOT
