@<TRIPOS>MOLECULE
molecule
   69    72     1     0     0
SMALL
bcc


@<TRIPOS>ATOM
      1 CBG          0.0000     0.0000     0.0000 c3         1 5D1      -0.047800
      2 CBC          1.5060     0.0000     0.0000 ca         1 5D1      -0.083300
      3 CBB          2.1980     0.0000     1.1980 ca         1 5D1      -0.128000
      4 CBD          2.1980    -0.0040    -1.1970 ca         1 5D1      -0.127000
      5 CBE          3.5800    -0.0040    -1.1960 ca         1 5D1      -0.126000
      6 CBF          4.2710     0.0010     0.0010 ca         1 5D1      -0.112000
      7 CBA          3.5800     0.0010     1.1980 ca         1 5D1      -0.078300
      8 CAZ          4.3330     0.0070     2.5040 c3         1 5D1       0.209100
      9 NAW          4.5720     1.3940     2.9250 n3         1 5D1      -0.724600
     10 CAX          5.5020     1.4460     4.0590 c3         1 5D1       0.157800
     11 CAY          5.8410     2.9040     4.3770 c3         1 5D1      -0.071900
     12 CAV          3.3100     2.0740     3.2400 c3         1 5D1       0.157800
     13 CAU          3.5840     3.5500     3.5330 c3         1 5D1      -0.071900
     14 CAT          4.5530     3.6620     4.7120 c3         1 5D1      -0.091700
     15 CBH          3.9120     3.0510     5.9600 c3         1 5D1       0.110000
     16 NAR          4.7900     3.2640     7.1140 ns         1 5D1      -0.586900
     17 CAQ          4.4290     2.8080     8.3290 c          1 5D1       0.657100
     18 OAS          3.3750     2.2220     8.4680 o          1 5D1      -0.608100
     19 CAP          5.3310     3.0260     9.5160 c3         1 5D1      -0.157400
     20 CAO          4.6900     2.4170    10.7640 c3         1 5D1      -0.068400
     21 CAN          5.6070     2.6380    11.9680 c3         1 5D1       0.133400
     22 OAM          5.0080     2.0680    13.1350 os         1 5D1      -0.315900
     23 CAJ          5.6950     2.1790    14.2950 cc         1 5D1       0.225900
     24 CAB          5.1580     1.6240    15.5430 ca         1 5D1      -0.129800
     25 CAC          3.9260     0.9670    15.5720 ca         1 5D1      -0.052000
     26 CAD          3.4530     0.4620    16.7510 ca         1 5D1      -0.174000
     27 CAE          4.1890     0.5950    17.9200 ca         1 5D1      -0.071000
     28 CAF          5.4070     1.2390    17.9140 ca         1 5D1      -0.188000
     29 CAA          5.9070     1.7620    16.7260 ca         1 5D1       0.110600
     30 NAG          7.1240     2.4100    16.6900 n          1 5D1      -0.343000
     31 CAK          7.9000     2.5510    17.9250 c3         1 5D1       0.079300
     32 CAH          7.6090     2.9150    15.5440 c          1 5D1       0.718700
     33 OAL          8.6890     3.4810    15.5550 o          1 5D1      -0.660500
     34 CAI          6.9090     2.8050    14.3320 cd         1 5D1      -0.372200
     35 H1          -0.3610    -0.5040    -0.8880 hc         1 5D1       0.043033
     36 H2          -0.3610     1.0210     0.0080 hc         1 5D1       0.043033
     37 H3          -0.3610    -0.5170     0.8810 hc         1 5D1       0.043033
     38 H4           1.6560    -0.0000     2.1360 ha         1 5D1       0.130000
     39 H5           1.6570    -0.0090    -2.1350 ha         1 5D1       0.129000
     40 H6           4.1220    -0.0060    -2.1340 ha         1 5D1       0.129000
     41 H7           5.3550     0.0020     0.0010 ha         1 5D1       0.133000
     42 H8           5.2820    -0.5000     2.3750 h1         1 5D1       0.040700
     43 H9           3.7500    -0.5050     3.2600 h1         1 5D1       0.040700
     44 H11          5.0390     0.9880     4.9250 h1         1 5D1       0.039700
     45 H12          6.4100     0.9130     3.8050 h1         1 5D1       0.039700
     46 H13          6.3130     3.3600     3.5150 hc         1 5D1       0.051450
     47 H14          6.5130     2.9410     5.2260 hc         1 5D1       0.051450
     48 H15          2.6370     1.9940     2.3950 h1         1 5D1       0.039700
     49 H16          2.8600     1.6120     4.1110 h1         1 5D1       0.039700
     50 H17          4.0240     4.0150     2.6590 hc         1 5D1       0.051450
     51 H18          2.6540     4.0460     3.7830 hc         1 5D1       0.051450
     52 H19          4.7850     4.7050     4.8910 hc         1 5D1       0.053700
     53 H20          2.9550     3.5250     6.1430 h1         1 5D1       0.056700
     54 H21          3.7660     1.9890     5.8080 h1         1 5D1       0.056700
     55 H22          5.6400     3.7810     7.0060 hn         1 5D1       0.313500
     56 H23          6.2880     2.5520     9.3340 hc         1 5D1       0.061200
     57 H24          5.4770     4.0880     9.6680 hc         1 5D1       0.061200
     58 H25          3.7330     2.8910    10.9460 hc         1 5D1       0.073700
     59 H26          4.5430     1.3540    10.6120 hc         1 5D1       0.073700
     60 H27          5.7530     3.7010    12.1200 h1         1 5D1       0.042700
     61 H28          6.5640     2.1650    11.7850 h1         1 5D1       0.042700
     62 H29          3.3460     0.8590    14.6640 ha         1 5D1       0.151000
     63 H30          2.4970    -0.0470    16.7730 ha         1 5D1       0.136000
     64 H31          3.8010     0.1900    18.8470 ha         1 5D1       0.134000
     65 H32          5.9740     1.3380    18.8320 ha         1 5D1       0.142000
     66 H33          8.8180     3.0870    17.7150 h1         1 5D1       0.056367
     67 H34          7.3200     3.1010    18.6550 h1         1 5D1       0.056367
     68 H35          8.1370     1.5690    18.3160 h1         1 5D1       0.056367
     69 H36          7.3300     3.2240    13.4260 ha         1 5D1       0.165000
@<TRIPOS>BOND
     1    31    30 1   
     2    28    27 ar  
     3    28    29 ar  
     4    27    26 ar  
     5    30    29 1   
     6    30    32 1   
     7    29    24 ar  
     8    33    32 2   
     9    32    34 1   
    10    26    25 ar  
    11     5     4 ar  
    12     5     6 ar  
    13    24    25 ar  
    14    24    23 1   
    15     4     2 ar  
    16    34    23 2   
    17     6     7 ar  
    18    23    22 1   
    19     2     1 1   
    20     2     3 ar  
    21    22    21 1   
    22     7     3 ar  
    23     7     8 1   
    24    12    13 1   
    25    12     9 1   
    26     8     9 1   
    27    21    20 1   
    28    13    14 1   
    29     9    10 1   
    30    19    20 1   
    31    19    17 1   
    32    17    18 2   
    33    17    16 1   
    34    14    15 1   
    35    14    11 1   
    36    15    16 1   
    37    10    11 1   
    38     1    35 1   
    39     1    36 1   
    40     1    37 1   
    41     3    38 1   
    42     4    39 1   
    43     5    40 1   
    44     6    41 1   
    45     8    42 1   
    46     8    43 1   
    47    10    44 1   
    48    10    45 1   
    49    11    46 1   
    50    11    47 1   
    51    12    48 1   
    52    12    49 1   
    53    13    50 1   
    54    13    51 1   
    55    14    52 1   
    56    15    53 1   
    57    15    54 1   
    58    16    55 1   
    59    19    56 1   
    60    19    57 1   
    61    20    58 1   
    62    20    59 1   
    63    21    60 1   
    64    21    61 1   
    65    25    62 1   
    66    26    63 1   
    67    27    64 1   
    68    28    65 1   
    69    31    66 1   
    70    31    67 1   
    71    31    68 1   
    72    34    69 1   
@<TRIPOS>SUBSTRUCTURE
     1 5D1         1 TEMP              0 ****  ****    0 ROOT
