@<TRIPOS>MOLECULE
molecule
   68    72     1     0     0
SMALL
bcc


@<TRIPOS>ATOM
      1 CAB          0.0000     0.0000     0.0000 ca         1 5D2      -0.180000
      2 CAA          1.3830     0.0000     0.0000 ca         1 5D2       0.054400
      3 Cl           2.2510     0.0000    -1.5030 cl         1 5D2      -0.111400
      4 CAF          2.0750     0.0000     1.1980 ca         1 5D2      -0.149000
      5 CAE          1.3880    -0.0010     2.3980 ca         1 5D2      -0.097000
      6 CAD          0.0060    -0.0010     2.4040 ca         1 5D2      -0.151000
      7 CAC         -0.6920     0.0040     1.2040 ca         1 5D2       0.115600
      8 NAH         -2.0890     0.0060     1.2060 nh         1 5D2      -0.597000
      9 CAM         -2.6130     1.1420     1.9760 c3         1 5D2       0.164800
     10 CAL         -4.1420     1.0620     2.0230 c3         1 5D2       0.159800
     11 CAI         -2.6190     0.0110    -0.1640 c3         1 5D2       0.164800
     12 CAJ         -4.1470    -0.0680    -0.1180 c3         1 5D2       0.159800
     13 NAK         -4.6720     1.0690     0.6520 n3         1 5D2      -0.734600
     14 CAN         -6.1400     1.0690     0.6560 c3         1 5D2       0.167800
     15 CAO         -6.6540     1.3260    -0.7620 c3         1 5D2      -0.103400
     16 CAP         -8.1830     1.3270    -0.7590 c3         1 5D2       0.110000
     17 NAQ         -8.6760     1.5730    -2.1170 ns         1 5D2      -0.587900
     18 CAR        -10.0010     1.6180    -2.3560 c          1 5D2       0.660100
     19 OAT        -10.7870     1.4530    -1.4470 o          1 5D2      -0.601100
     20 CAS        -10.5070     1.8710    -3.7530 c3         1 5D2      -0.146700
     21 CAY        -12.0370     1.8730    -3.7490 c3         1 5D2      -0.087900
     22 CAX        -12.5480     2.1650    -5.1630 c3         1 5D2       0.235800
     23 CAU         -9.9990     0.7700    -4.6870 c3         1 5D2      -0.087900
     24 CAV        -10.4860     1.0500    -6.1120 c3         1 5D2       0.235800
     25 NAW        -11.9470     1.1960    -6.0910 nh         1 5D2      -0.819300
     26 CAZ        -12.7470     0.4340    -6.9350 cc         1 5D2       0.685200
     27 NBE        -14.0540     0.4990    -6.8240 nd         1 5D2      -0.583800
     28 NBD        -14.8760    -0.2540    -7.6650 na         1 5D2       0.116300
     29 CBH        -16.2130    -0.3920    -7.7870 cd         1 5D2       0.349800
     30 CBI        -17.2590     0.3070    -6.9580 c3         1 5D2      -0.081400
     31 NBG        -16.4380    -1.2440    -8.7570 nc         1 5D2      -0.367700
     32 NBF        -15.3230    -1.6530    -9.2560 nc         1 5D2      -0.063000
     33 CBC        -14.3200    -1.0720    -8.6170 cd         1 5D2      -0.160300
     34 CBB        -12.9190    -1.1420    -8.7350 cd         1 5D2       0.005000
     35 CBA        -12.1460    -0.3960    -7.9020 cc         1 5D2      -0.295300
     36 H1          -0.5420     0.0040    -0.9380 ha         1 5D2       0.149000
     37 H2           3.1590     0.0000     1.1960 ha         1 5D2       0.143000
     38 H3           1.9330    -0.0030     3.3340 ha         1 5D2       0.138000
     39 H4          -0.5320     0.0000     3.3440 ha         1 5D2       0.140000
     40 H5          -2.3160     2.0680     1.4990 h1         1 5D2       0.051700
     41 H6          -2.2190     1.1070     2.9840 h1         1 5D2       0.051700
     42 H7          -4.4390     0.1470     2.5200 h1         1 5D2       0.044950
     43 H8          -4.5310     1.9160     2.5640 h1         1 5D2       0.044950
     44 H9          -2.3210     0.9260    -0.6620 h1         1 5D2       0.051700
     45 H10         -2.2300    -0.8430    -0.7040 h1         1 5D2       0.051700
     46 H11         -4.5400    -0.0320    -1.1270 h1         1 5D2       0.044950
     47 H12         -4.4450    -0.9950     0.3580 h1         1 5D2       0.044950
     48 H14         -6.4990     1.8490     1.3170 h1         1 5D2       0.040200
     49 H15         -6.5010     0.1080     1.0020 h1         1 5D2       0.040200
     50 H16         -6.2950     0.5460    -1.4230 hc         1 5D2       0.052700
     51 H17         -6.2930     2.2870    -1.1080 hc         1 5D2       0.052700
     52 H18         -8.5440     0.3660    -0.4120 h1         1 5D2       0.055200
     53 H19         -8.5420     2.1070    -0.0980 h1         1 5D2       0.055200
     54 H20         -8.0280     1.7460    -2.8600 hn         1 5D2       0.312500
     55 H21        -10.1480     2.8320    -4.1030 hc         1 5D2       0.065700
     56 H22        -12.3970     0.9020    -3.4290 hc         1 5D2       0.064450
     57 H23        -12.3940     2.6390    -3.0710 hc         1 5D2       0.064450
     58 H24        -12.2610     3.1690    -5.4520 h1         1 5D2       0.059450
     59 H25        -13.6260     2.0680    -5.1860 h1         1 5D2       0.059450
     60 H26        -10.3820    -0.1880    -4.3560 hc         1 5D2       0.064450
     61 H27         -8.9160     0.7570    -4.6720 hc         1 5D2       0.064450
     62 H28        -10.2140     0.2230    -6.7560 h1         1 5D2       0.059450
     63 H29        -10.0350     1.9650    -6.4760 h1         1 5D2       0.059450
     64 H30        -18.2450     0.0200    -7.3030 hc         1 5D2       0.060033
     65 H31        -17.1400     1.3790    -7.0560 hc         1 5D2       0.060033
     66 H32        -17.1440     0.0250    -5.9180 hc         1 5D2       0.060033
     67 H33        -12.4620    -1.7810    -9.4810 ha         1 5D2       0.165000
     68 H34        -11.0680    -0.4220    -7.9980 ha         1 5D2       0.150000
@<TRIPOS>BOND
     1    30    29 1   
     2    31    29 2   
     3    31    32 1   
     4    29    28 1   
     5    32    33 2   
     6    28    33 1   
     7    28    27 1   
     8    33    34 1   
     9    27    26 2   
    10    34    35 2   
    11    26    35 1   
    12    26    25 1   
    13    22    25 1   
    14    22    21 1   
    15    25    24 1   
    16    21    20 1   
    17    24    23 1   
    18    23    20 1   
    19    20    18 1   
    20    18    19 2   
    21    18    17 1   
    22    17    16 1   
    23    16    15 1   
    24    15    14 1   
    25     5     6 ar  
    26     5     4 ar  
    27    10     9 1   
    28    10    13 1   
    29     6     7 ar  
    30     9     8 1   
    31     4     2 ar  
    32    14    13 1   
    33    13    12 1   
    34     7     8 1   
    35     7     1 ar  
    36     8    11 1   
    37     2     1 ar  
    38     2     3 1   
    39    12    11 1   
    40     1    36 1   
    41     4    37 1   
    42     5    38 1   
    43     6    39 1   
    44     9    40 1   
    45     9    41 1   
    46    10    42 1   
    47    10    43 1   
    48    11    44 1   
    49    11    45 1   
    50    12    46 1   
    51    12    47 1   
    52    14    48 1   
    53    14    49 1   
    54    15    50 1   
    55    15    51 1   
    56    16    52 1   
    57    16    53 1   
    58    17    54 1   
    59    20    55 1   
    60    21    56 1   
    61    21    57 1   
    62    22    58 1   
    63    22    59 1   
    64    23    60 1   
    65    23    61 1   
    66    24    62 1   
    67    24    63 1   
    68    30    64 1   
    69    30    65 1   
    70    30    66 1   
    71    34    67 1   
    72    35    68 1   
@<TRIPOS>SUBSTRUCTURE
     1 5D2         1 TEMP              0 ****  ****    0 ROOT
