@<TRIPOS>MOLECULE
5D2
   68    72     1     0     0
SMALL
bcc


@<TRIPOS>ATOM
      1 CAB          0.0000     0.0000     0.0000 ca         1 5D2      -0.169000
      2 CAA          1.3830     0.0000     0.0000 ca         1 5D2      -0.002600
      3 Cl           2.2510     0.0000    -1.5030 cl         1 5D2      -0.031400
      4 CAF          2.0750     0.0000     1.1980 ca         1 5D2      -0.127000
      5 CAE          1.3880    -0.0010     2.3980 ca         1 5D2      -0.064000
      6 CAD          0.0060    -0.0010     2.4040 ca         1 5D2      -0.129000
      7 CAC         -0.6920     0.0040     1.2040 ca         1 5D2       0.034600
      8 NAH         -2.0890     0.0060     1.2060 nh         1 5D2      -0.362000
      9 CAM         -2.6130     1.1420     1.9760 c3         1 5D2       0.136300
     10 CAL         -4.1420     1.0620     2.0230 c3         1 5D2       0.148800
     11 CAI         -2.6190     0.0110    -0.1640 c3         1 5D2       0.136300
     12 CAJ         -4.1470    -0.0680    -0.1180 c3         1 5D2       0.148800
     13 NAK         -4.6720     1.0690     0.6520 n3         1 5D2      -0.546600
     14 CAN         -6.1400     1.0690     0.6560 c3         1 5D2       0.162800
     15 CAO         -6.6540     1.3260    -0.7620 c3         1 5D2      -0.052400
     16 CAP         -8.1830     1.3270    -0.7590 c3         1 5D2       0.051000
     17 NAQ         -8.6760     1.5730    -2.1170 ns         1 5D2      -0.200900
     18 CAR        -10.0010     1.6180    -2.3560 c          1 5D2       0.574100
     19 OAT        -10.7870     1.4530    -1.4470 o          1 5D2      -0.638100
     20 CAS        -10.5070     1.8710    -3.7530 c3         1 5D2      -0.124700
     21 CAY        -12.0370     1.8730    -3.7490 c3         1 5D2      -0.031900
     22 CAX        -12.5480     2.1650    -5.1630 c3         1 5D2       0.162800
     23 CAU         -9.9990     0.7700    -4.6870 c3         1 5D2      -0.031900
     24 CAV        -10.4860     1.0500    -6.1120 c3         1 5D2       0.162800
     25 NAW        -11.9470     1.1960    -6.0910 nh         1 5D2      -0.447300
     26 CAZ        -12.7470     0.4340    -6.9350 cc         1 5D2       0.593200
     27 NBE        -14.0540     0.4990    -6.8240 nd         1 5D2      -0.733800
     28 NBD        -14.8760    -0.2540    -7.6650 na         1 5D2       0.622300
     29 CBH        -16.2130    -0.3920    -7.7870 cc         1 5D2       0.133800
     30 CBI        -17.2590     0.3070    -6.9580 c3         1 5D2       0.036600
     31 NBG        -16.4380    -1.2440    -8.7570 nd         1 5D2      -0.340700
     32 NBF        -15.3230    -1.6530    -9.2560 nd         1 5D2      -0.040000
     33 CBC        -14.3200    -1.0720    -8.6170 cc         1 5D2      -0.361300
     34 CBB        -12.9190    -1.1420    -8.7350 cd         1 5D2       0.080000
     35 CBA        -12.1460    -0.3960    -7.9020 cc         1 5D2      -0.322300
     36 H1          -0.5420     0.0040    -0.9380 ha         1 5D2       0.133000
     37 H2           3.1590     0.0000     1.1960 ha         1 5D2       0.116000
     38 H3           1.9330    -0.0030     3.3340 ha         1 5D2       0.105000
     39 H4          -0.5320     0.0000     3.3440 ha         1 5D2       0.116000
     40 H5          -2.3160     2.0680     1.4990 h1         1 5D2       0.025700
     41 H6          -2.2190     1.1070     2.9840 h1         1 5D2       0.025700
     42 H7          -4.4390     0.1470     2.5200 h1         1 5D2       0.017950
     43 H8          -4.5310     1.9160     2.5640 h1         1 5D2       0.017950
     44 H9          -2.3210     0.9260    -0.6620 h1         1 5D2       0.025700
     45 H10         -2.2300    -0.8430    -0.7040 h1         1 5D2       0.025700
     46 H11         -4.5400    -0.0320    -1.1270 h1         1 5D2       0.017950
     47 H12         -4.4450    -0.9950     0.3580 h1         1 5D2       0.017950
     48 H14         -6.4990     1.8490     1.3170 h1         1 5D2       0.014200
     49 H15         -6.5010     0.1080     1.0020 h1         1 5D2       0.014200
     50 H16         -6.2950     0.5460    -1.4230 hc         1 5D2       0.025200
     51 H17         -6.2930     2.2870    -1.1080 hc         1 5D2       0.025200
     52 H18         -8.5440     0.3660    -0.4120 h1         1 5D2       0.028200
     53 H19         -8.5420     2.1070    -0.0980 h1         1 5D2       0.028200
     54 H20         -8.0280     1.7460    -2.8600 hn         1 5D2       0.175500
     55 H21        -10.1480     2.8320    -4.1030 hc         1 5D2       0.040700
     56 H22        -12.3970     0.9020    -3.4290 hc         1 5D2       0.034450
     57 H23        -12.3940     2.6390    -3.0710 hc         1 5D2       0.034450
     58 H24        -12.2610     3.1690    -5.4520 h1         1 5D2       0.033700
     59 H25        -13.6260     2.0680    -5.1860 h1         1 5D2       0.033700
     60 H26        -10.3820    -0.1880    -4.3560 hc         1 5D2       0.034450
     61 H27         -8.9160     0.7570    -4.6720 hc         1 5D2       0.034450
     62 H28        -10.2140     0.2230    -6.7560 h1         1 5D2       0.033700
     63 H29        -10.0350     1.9650    -6.4760 h1         1 5D2       0.033700
     64 H30        -18.2450     0.0200    -7.3030 hc         1 5D2       0.015700
     65 H31        -17.1400     1.3790    -7.0560 hc         1 5D2       0.015700
     66 H32        -17.1440     0.0250    -5.9180 hc         1 5D2       0.015700
     67 H33        -12.4620    -1.7810    -9.4810 ha         1 5D2       0.122000
     68 H34        -11.0680    -0.4220    -7.9980 ha         1 5D2       0.135000
@<TRIPOS>BOND
     1     1     2 ar  
     2     1     7 ar  
     3     1    36 1   
     4     2     3 1   
     5     2     4 ar  
     6     4     5 ar  
     7     4    37 1   
     8     5     6 ar  
     9     5    38 1   
    10     6     7 ar  
    11     6    39 1   
    12     7     8 1   
    13     8     9 1   
    14     8    11 1   
    15     9    10 1   
    16     9    40 1   
    17     9    41 1   
    18    10    13 1   
    19    10    42 1   
    20    10    43 1   
    21    11    12 1   
    22    11    44 1   
    23    11    45 1   
    24    12    13 1   
    25    12    46 1   
    26    12    47 1   
    27    13    14 1   
    28    14    15 1   
    29    14    48 1   
    30    14    49 1   
    31    15    16 1   
    32    15    50 1   
    33    15    51 1   
    34    16    17 1   
    35    16    52 1   
    36    16    53 1   
    37    17    18 1   
    38    17    54 1   
    39    18    19 2   
    40    18    20 1   
    41    20    21 1   
    42    20    23 1   
    43    20    55 1   
    44    21    22 1   
    45    21    56 1   
    46    21    57 1   
    47    22    25 1   
    48    22    58 1   
    49    22    59 1   
    50    23    24 1   
    51    23    60 1   
    52    23    61 1   
    53    24    25 1   
    54    24    62 1   
    55    24    63 1   
    56    25    26 1   
    57    26    27 2   
    58    26    35 1   
    59    27    28 1   
    60    28    29 1   
    61    28    33 1   
    62    29    30 1   
    63    29    31 2   
    64    30    64 1   
    65    30    65 1   
    66    30    66 1   
    67    31    32 1   
    68    32    33 2   
    69    33    34 1   
    70    34    35 2   
    71    34    67 1   
    72    35    68 1   
@<TRIPOS>SUBSTRUCTURE
     1 5D2         1 TEMP              0 ****  ****    0 ROOT
