@<TRIPOS>MOLECULE
molecule
   34    33     1     0     0
SMALL
bcc


@<TRIPOS>ATOM
      1 O1           0.0000     0.0000     0.0000 o          1 5D4      -0.609100
      2 C8           1.2130     0.0000     0.0000 c          1 5D4       0.655100
      3 C9           1.9650     0.0000     1.3060 c3         1 5D4      -0.172100
      4 N1           1.8870    -0.0050    -1.1660 ns         1 5D4      -0.591900
      5 C7           1.1550    -0.0100    -2.4350 c3         1 5D4       0.111500
      6 C6           2.1500    -0.0160    -3.5980 c3         1 5D4      -0.101400
      7 C5           1.3860    -0.0220    -4.9230 c3         1 5D4      -0.077900
      8 C4           2.3820    -0.0270    -6.0860 c3         1 5D4      -0.077900
      9 C3           1.6180    -0.0330    -7.4110 c3         1 5D4      -0.101400
     10 C2           2.6120    -0.0390    -8.5740 c3         1 5D4       0.111500
     11 N            1.8810    -0.0450    -9.8420 ns         1 5D4      -0.591900
     12 C1           2.5550    -0.0490   -11.0090 c          1 5D4       0.655100
     13 O            3.7680    -0.0490   -11.0090 o          1 5D4      -0.609100
     14 C            1.8030    -0.0550   -12.3150 c3         1 5D4      -0.172100
     15 H91C         2.5850    -0.8860     1.3660 hc         1 5D4       0.060200
     16 H92C         2.5900     0.8830     1.3630 hc         1 5D4       0.060200
     17 H93C         1.2600     0.0040     2.1290 hc         1 5D4       0.060200
     18 H1           2.8880    -0.0040    -1.1660 hn         1 5D4       0.312000
     19 H71C         0.5320    -0.8950    -2.4880 h1         1 5D4       0.053700
     20 H72C         0.5330     0.8740    -2.4970 h1         1 5D4       0.053700
     21 H61C         2.7730    -0.9010    -3.5360 hc         1 5D4       0.045700
     22 H62C         2.7730     0.8680    -3.5450 hc         1 5D4       0.045700
     23 H51C         0.7630    -0.9070    -4.9770 hc         1 5D4       0.046700
     24 H52C         0.7630     0.8620    -4.9850 hc         1 5D4       0.046700
     25 H41C         3.0040     0.8580    -6.0320 hc         1 5D4       0.046700
     26 H42C         3.0050    -0.9110    -6.0240 hc         1 5D4       0.046700
     27 H31C         0.9940    -0.9180    -7.4640 hc         1 5D4       0.045700
     28 H32C         0.9950     0.8510    -7.4720 hc         1 5D4       0.045700
     29 H21C         3.2350     0.8460    -8.5200 h1         1 5D4       0.053700
     30 H22C         3.2350    -0.9230    -8.5120 h1         1 5D4       0.053700
     31 H            0.8800    -0.0460    -9.8430 hn         1 5D4       0.312000
     32 HC1          1.1790     0.8280   -12.3770 hc         1 5D4       0.060200
     33 HC2          2.5080    -0.0580   -13.1380 hc         1 5D4       0.060200
     34 HC3          1.1810    -0.9410   -12.3700 hc         1 5D4       0.060200
@<TRIPOS>BOND
     1     1     2 2
     2     2     3 1
     3     2     4 1
     4     4     5 1
     5     5     6 1
     6     6     7 1
     7     7     8 1
     8     8     9 1
     9     9    10 1
    10    10    11 1
    11    11    12 1
    12    12    13 2
    13    12    14 1
    14     3    15 1
    15     3    16 1
    16     3    17 1
    17     4    18 1
    18     5    19 1
    19     5    20 1
    20     6    21 1
    21     6    22 1
    22     7    23 1
    23     7    24 1
    24     8    25 1
    25     8    26 1
    26     9    27 1
    27     9    28 1
    28    10    29 1
    29    10    30 1
    30    11    31 1
    31    14    32 1
    32    14    33 1
    33    14    34 1
@<TRIPOS>SUBSTRUCTURE
     1 5D4         1 TEMP              0 ****  ****    0 ROOT
