@<TRIPOS>MOLECULE
5D7
   41    41     1     0     0
SMALL
bcc


@<TRIPOS>ATOM
      1 O9           0.0000     0.0000     0.0000 o          1 5D7      -0.542000
      2 C6           1.2150     0.0000     0.0000 c          1 5D7       0.616600
      3 O7           1.8900     0.0000     1.1670 os         1 5D7      -0.395900
      4 C8           1.0990     0.0010     2.3850 c3         1 5D7       0.274600
      5 C2           1.9510    -0.0070    -1.2740 cc         1 5D7       0.272800
      6 N3           3.2840    -0.0120    -1.3480 nc         1 5D7      -0.405000
      7 C4           3.7790    -0.0180    -2.5350 cd         1 5D7       0.224700
      8 S5           2.5340    -0.0150    -3.7040 ss         1 5D7      -0.229300
      9 C1           1.3400    -0.0130    -2.4810 cd         1 5D7       0.041600
     10 CA           5.2520    -0.0240    -2.8530 c3         1 5D7      -0.047800
     11 N            5.5220    -1.0080    -3.9090 nz         1 5D7       0.054400
     12 CB           5.6780     1.3660    -3.3280 c3         1 5D7      -0.039400
     13 CG           7.1940     1.3950    -3.5300 c3         1 5D7      -0.044400
     14 CD           7.6190     2.7840    -4.0060 c3         1 5D7       0.179800
     15 NE           9.0710     2.8110    -4.1990 nu         1 5D7      -0.510200
     16 CZ           9.6870     3.9640    -4.6280 c2         1 5D7       0.242100
     17 NH2          8.9780     5.0330    -4.8610 n2         1 5D7      -0.577100
     18 NH1         11.0500     3.9890    -4.8090 nz         1 5D7       0.206400
     19 C3           2.0190     0.0010     3.5800 c2         1 5D7      -0.197200
     20 C5           1.7810     0.8040     4.5870 c2         1 5D7      -0.106000
     21 H1           0.4740     0.8860     2.4100 h1         1 5D7       0.023200
     22 H2           0.4740    -0.8840     2.4110 h1         1 5D7       0.023200
     23 H3           0.2690    -0.0120    -2.6460 h4         1 5D7       0.205000
     24 H4           5.8120    -0.2880    -1.9630 hx         1 5D7       0.106700
     25 H5           5.3760    -0.5850    -4.8040 hn         1 5D7       0.233800
     26 H6           6.4690    -1.3220    -3.8390 hn         1 5D7       0.233800
     27 H8           5.1850     1.5940    -4.2660 hc         1 5D7       0.065200
     28 H9           5.3980     2.1030    -2.5850 hc         1 5D7       0.065200
     29 H10          7.4740     0.6570    -4.2720 hc         1 5D7       0.022200
     30 H11          7.6870     1.1680    -2.5920 hc         1 5D7       0.022200
     31 H12          7.3400     3.5220    -3.2630 h1         1 5D7       0.039700
     32 H13          7.1260     3.0110    -4.9430 h1         1 5D7       0.039700
     33 H14          9.6180     1.9960    -4.0030 hn         1 5D7       0.307800
     34 H15          7.9860     5.0160    -4.7290 hn         1 5D7       0.379400
     35 H16         11.4380     4.7710    -4.3190 hn         1 5D7       0.227467
     36 H17         11.2550     4.0720    -5.7850 hn         1 5D7       0.227467
     37 H18          2.8750    -0.6620     3.6050 ha         1 5D7       0.111000
     38 H19          0.9250     1.4660     4.5610 ha         1 5D7       0.091500
     39 H20          2.4410     0.8050     5.4460 ha         1 5D7       0.091500
     40 HN3          4.9180    -1.7980    -3.7910 hn         1 5D7       0.233800
     41 HH13        11.4490     3.1430    -4.4530 hn         1 5D7       0.227467
@<TRIPOS>BOND
     1     1     2 2   
     2     2     3 1   
     3     2     5 1   
     4     3     4 1   
     5     4    19 1   
     6     4    21 1   
     7     4    22 1   
     8     5     6 1   
     9     5     9 2   
    10     6     7 2   
    11     7     8 1   
    12     7    10 1   
    13     8     9 1   
    14     9    23 1   
    15    10    11 1   
    16    10    12 1   
    17    10    24 1   
    18    11    25 1   
    19    11    26 1   
    20    11    40 1   
    21    12    13 1   
    22    12    27 1   
    23    12    28 1   
    24    13    14 1   
    25    13    29 1   
    26    13    30 1   
    27    14    15 1   
    28    14    31 1   
    29    14    32 1   
    30    15    16 1   
    31    15    33 1   
    32    16    17 2   
    33    16    18 1   
    34    17    34 1   
    35    18    35 1   
    36    18    36 1   
    37    18    41 1   
    38    19    20 2   
    39    19    37 1   
    40    20    38 1   
    41    20    39 1   
@<TRIPOS>SUBSTRUCTURE
     1 5D7         1 TEMP              0 ****  ****    0 ROOT
