@<TRIPOS>MOLECULE
molecule
   41    41     1     0     0
SMALL
bcc


@<TRIPOS>ATOM
      1 O9           0.0000     0.0000     0.0000 o          1 5D7      -0.506000
      2 C6           1.2150     0.0000     0.0000 c          1 5D7       0.564600
      3 O7           1.8900     0.0000     1.1670 os         1 5D7      -0.404900
      4 C8           1.0990     0.0010     2.3850 c3         1 5D7       0.182600
      5 C2           1.9510    -0.0070    -1.2740 cc         1 5D7       0.345800
      6 N3           3.2840    -0.0120    -1.3480 nc         1 5D7      -0.564000
      7 C4           3.7790    -0.0180    -2.5350 cd         1 5D7       0.275700
      8 S5           2.5340    -0.0150    -3.7040 ss         1 5D7      -0.126300
      9 C1           1.3400    -0.0130    -2.4810 cd         1 5D7      -0.069400
     10 CA           5.2520    -0.0240    -2.8530 c3         1 5D7       0.113200
     11 N            5.5220    -1.0080    -3.9090 nz         1 5D7      -0.818600
     12 CB           5.6780     1.3660    -3.3280 c3         1 5D7      -0.101400
     13 CG           7.1940     1.3950    -3.5300 c3         1 5D7      -0.121400
     14 CD           7.6190     2.7840    -4.0060 c3         1 5D7       0.259800
     15 NE           9.0710     2.8110    -4.1990 nu         1 5D7      -0.874200
     16 CZ           9.6870     3.9640    -4.6280 c2         1 5D7       0.691100
     17 NH2          8.9780     5.0330    -4.8610 n2         1 5D7      -0.763100
     18 NH1         11.0500     3.9890    -4.8090 nz         1 5D7      -0.806600
     19 C3           2.0190     0.0010     3.5800 c2         1 5D7      -0.198200
     20 C5           1.7810     0.8040     4.5870 c2         1 5D7      -0.175000
     21 H1           0.4740     0.8860     2.4100 h1         1 5D7       0.066200
     22 H2           0.4740    -0.8840     2.4110 h1         1 5D7       0.066200
     23 H3           0.2690    -0.0120    -2.6460 h4         1 5D7       0.240000
     24 H4           5.8120    -0.2880    -1.9630 hx         1 5D7       0.142700
     25 H5           6.2240    -1.6490    -3.5970 hn         1 5D7       0.460467
     26 H6           4.6820    -1.5100    -4.1190 hn         1 5D7       0.460467
     27 H8           5.3980     2.1030    -2.5850 hc         1 5D7       0.101700
     28 H9           5.1850     1.5940    -4.2660 hc         1 5D7       0.101700
     29 H10          7.4740     0.6570    -4.2720 hc         1 5D7       0.050200
     30 H11          7.6870     1.1680    -2.5920 hc         1 5D7       0.050200
     31 H12          7.3400     3.5220    -3.2630 h1         1 5D7       0.084700
     32 H13          7.1260     3.0110    -4.9430 h1         1 5D7       0.084700
     33 H14          9.6140     1.9880    -4.0290 hn         1 5D7       0.454800
     34 H15          9.4250     5.8720    -5.1730 hn         1 5D7       0.455400
     35 H16         11.4870     3.3980    -4.1300 hn         1 5D7       0.474133
     36 H17         11.2700     3.6610    -5.7290 hn         1 5D7       0.474133
     37 H18          2.8750    -0.6620     3.6050 ha         1 5D7       0.137000
     38 H19          2.4410     0.8050     5.4460 ha         1 5D7       0.127000
     39 H20          0.9250     1.4660     4.5610 ha         1 5D7       0.127000
     40 HN3          5.8640    -0.5380    -4.7240 hn         1 5D7       0.460467
     41 HH13        11.3860     4.9240    -4.6850 hn         1 5D7       0.474133
@<TRIPOS>BOND
     1     1     2 2
     2    11    10 1
     3    15    14 1
     4    15    16 1
     5     2     3 1
     6     2     5 1
     7     4     3 1
     8     4    19 1
     9     6     5 1
    10     6     7 2
    11    14    13 1
    12    17    16 2
    13    13    12 1
    14     5     9 2
    15    16    18 1
    16    10     7 1
    17    10    12 1
    18    20    19 2
    19     7     8 1
    20     9     8 1
    21     4    21 1
    22     4    22 1
    23     9    23 1
    24    10    24 1
    25    11    25 1
    26    11    26 1
    27    12    27 1
    28    12    28 1
    29    13    29 1
    30    13    30 1
    31    14    31 1
    32    14    32 1
    33    15    33 1
    34    17    34 1
    35    18    35 1
    36    18    36 1
    37    19    37 1
    38    20    38 1
    39    20    39 1
    40    40    11 1
    41    41    18 1
@<TRIPOS>SUBSTRUCTURE
     1 5D7         1 TEMP              0 ****  ****    0 ROOT
