@<TRIPOS>MOLECULE
5DE
   36    37     1     0     0
SMALL
bcc


@<TRIPOS>ATOM
      1 O19          0.0000     0.0000     0.0000 o          1 5DE      -0.587000
      2 C15          1.2160     0.0000     0.0000 c          1 5DE       0.769700
      3 O16          1.8880     0.0000     1.1670 os         1 5DE      -0.421900
      4 C17          1.1620    -0.0010     2.4240 c3         1 5DE       0.230400
      5 C18          2.1560    -0.0020     3.5860 c3         1 5DE      -0.003100
      6 C7           1.9510     0.0010    -1.2750 cc         1 5DE      -0.367900
      7 C8           2.3710     1.1380    -2.0010 cc         1 5DE       0.412600
      8 N10          2.9900     0.7280    -3.0730 nd         1 5DE      -0.674800
      9 C9           2.1440     2.5740    -1.6060 c3         1 5DE      -0.011400
     10 C5           2.3670    -1.1100    -1.9840 cd         1 5DE      -0.214600
     11 C6           2.1430    -2.5500    -1.5970 c3         1 5DE       0.086200
     12 N4           2.9970    -0.6720    -3.0860 na         1 5DE       0.672300
     13 C3           3.5690    -1.4790    -4.0800 ca         1 5DE      -0.231200
     14 C2           4.2610    -2.6290    -3.7250 ca         1 5DE      -0.034000
     15 C1           4.8210    -3.4270    -4.7030 ca         1 5DE      -0.181000
     16 C11          3.4500    -1.1250    -5.4160 ca         1 5DE      -0.034000
     17 C12          4.0140    -1.9200    -6.3940 ca         1 5DE      -0.181000
     18 C13          4.7000    -3.0740    -6.0410 ca         1 5DE       0.065600
     19 N14          5.2710    -3.8780    -7.0300 nv         1 5DE      -0.437200
     20 H171         0.5390    -0.8860     2.4810 h1         1 5DE       0.005200
     21 H172         0.5390     0.8830     2.4820 h1         1 5DE       0.005200
     22 H181         2.6430     0.9640     3.6460 hc         1 5DE       0.009700
     23 H182         2.9000    -0.7730     3.4250 hc         1 5DE       0.009700
     24 H183         1.6290    -0.1980     4.5120 hc         1 5DE       0.009700
     25 H91          2.6660     2.7800    -0.6790 hc         1 5DE       0.015033
     26 H92          2.5200     3.2270    -2.3840 hc         1 5DE       0.015033
     27 H93          1.0840     2.7480    -1.4690 hc         1 5DE       0.015033
     28 H61          1.3260    -2.6100    -0.8880 hc         1 5DE       0.017700
     29 H62          1.8990    -3.1280    -2.4800 hc         1 5DE       0.017700
     30 H63          3.0440    -2.9460    -1.1440 hc         1 5DE       0.017700
     31 H2           4.3550    -2.9050    -2.6820 ha         1 5DE       0.119000
     32 H1           5.3590    -4.3260    -4.4260 ha         1 5DE       0.113500
     33 H11          2.9150    -0.2250    -5.6920 ha         1 5DE       0.119000
     34 H12          3.9200    -1.6440    -7.4380 ha         1 5DE       0.113500
     35 H141         5.3280    -3.5470    -7.9730 hn         1 5DE       0.268300
     36 H142         5.6320    -4.7820    -6.7950 hn         1 5DE       0.268300
@<TRIPOS>BOND
     1     1     2 2   
     2     2     3 1   
     3     2     6 1   
     4     3     4 1   
     5     4     5 1   
     6     4    20 1   
     7     4    21 1   
     8     5    22 1   
     9     5    23 1   
    10     5    24 1   
    11     6     7 1   
    12     6    10 2   
    13     7     8 2   
    14     7     9 1   
    15     8    12 1   
    16     9    25 1   
    17     9    26 1   
    18     9    27 1   
    19    10    11 1   
    20    10    12 1   
    21    11    28 1   
    22    11    29 1   
    23    11    30 1   
    24    12    13 1   
    25    13    14 ar  
    26    13    16 ar  
    27    14    15 ar  
    28    14    31 1   
    29    15    18 ar  
    30    15    32 1   
    31    16    17 ar  
    32    16    33 1   
    33    17    18 ar  
    34    17    34 1   
    35    18    19 1   
    36    19    35 1   
    37    19    36 1   
@<TRIPOS>SUBSTRUCTURE
     1 5DE         1 TEMP              0 ****  ****    0 ROOT
