@<TRIPOS>MOLECULE
molecule
   40    42     1     0     0
SMALL
bcc


@<TRIPOS>ATOM
      1 C7           0.0000     0.0000     0.0000 cp         1 5DF      -0.025000
      2 C6          -0.7430     0.0060    -1.2850 cp         1 5DF      -0.226300
      3 C9           2.0820     0.0000     1.1950 ca         1 5DF      -0.145000
      4 C8           1.3940     0.0000     0.0000 ca         1 5DF      -0.115500
      5 C18          0.1520    -0.8990    -7.2010 ca         1 5DF      -0.025000
      6 C16          1.5290     0.9320    -6.4870 ca         1 5DF      -0.025000
      7 C19         -0.4850    -0.9050    -5.9770 ca         1 5DF      -0.155500
      8 C1          -0.0540     0.0070    -2.5000 ca         1 5DF      -0.025000
      9 C2          -0.7950     0.0130    -3.6790 cp         1 5DF      -0.254300
     10 C3          -2.1950     0.0170    -3.6020 ca         1 5DF       0.725200
     11 N4          -2.8070     0.0160    -2.4280 nb         1 5DF      -0.760000
     12 C5          -2.1360     0.0050    -1.2930 ca         1 5DF       0.490200
     13 C10          1.3870    -0.0010     2.3980 ca         1 5DF       0.101100
     14 C11         -0.0010    -0.0070     2.4000 ca         1 5DF      -0.145000
     15 C12         -0.6940    -0.0010     1.2090 ca         1 5DF      -0.115500
     16 N13         -2.9480     0.0240    -4.7670 nv         1 5DF      -1.005500
     17 C14         -0.1140     0.0140    -4.9960 cp         1 5DF       0.033000
     18 C15          0.8990     0.9360    -5.2590 ca         1 5DF      -0.155500
     19 C17          1.1610     0.0140    -7.4540 ca         1 5DF      -0.304500
     20 S20          1.9700     0.0160    -9.0200 sy         1 5DF       1.193300
     21 O21          1.0140    -0.5430    -9.9090 o          1 5DF      -0.618300
     22 O22          2.4250     1.3530    -9.1770 o          1 5DF      -0.618300
     23 C23          3.3740    -1.1130    -8.8040 c3         1 5DF      -0.226300
     24 O24          2.0680     0.0040     3.5740 oh         1 5DF      -0.521100
     25 H28          3.1650     0.0030     1.1960 ha         1 5DF       0.141500
     26 H27          1.9370     0.0000    -0.9380 ha         1 5DF       0.133000
     27 H34          2.3180     1.6460    -6.6920 ha         1 5DF       0.153000
     28 H36         -1.2750    -1.6200    -5.7790 ha         1 5DF       0.145000
     29 H25          1.0290     0.0040    -2.5250 ha         1 5DF       0.144000
     30 H26         -2.6760     0.0050    -0.3540 h4         1 5DF       0.028100
     31 H29         -0.5400    -0.0080     3.3400 ha         1 5DF       0.141500
     32 H30         -1.7770    -0.0070     1.2120 ha         1 5DF       0.133000
     33 H32         -3.9480     0.0260    -4.7170 hn         1 5DF       0.447300
     34 H31         -2.4920     0.0300    -5.6580 hn         1 5DF       0.447300
     35 H33          1.1890     1.6540    -4.5020 ha         1 5DF       0.145000
     36 H38          3.0100    -2.0930    -8.5220 h1         1 5DF       0.098367
     37 H39          3.9250    -1.1860    -9.7340 h1         1 5DF       0.098367
     38 H37          4.0270    -0.7330    -8.0270 h1         1 5DF       0.098367
     39 H40          2.1920    -0.8830     3.8690 ho         1 5DF       0.419000
     40 H35         -0.1330    -1.6140    -7.9630 ha         1 5DF       0.153000
@<TRIPOS>BOND
     1    23    20 1
     2    22    20 2
     3    20    21 2
     4    20    19 1
     5    19     6 ar
     6    19     5 ar
     7     6    18 ar
     8     5     7 ar
     9    18    17 ar
    10     7    17 ar
    11    16    10 1
    12    17     9 1
    13    10     9 ar
    14    10    11 ar
    15     9     8 ar
    16    11    12 ar
    17     8     2 ar
    18    12     2 ar
    19     2     1 1
    20     4     1 ar
    21     4     3 ar
    22     1    15 ar
    23     3    13 ar
    24    15    14 ar
    25    13    14 ar
    26    13    24 1
    27     3    25 1
    28     4    26 1
    29     5    40 1
    30     6    27 1
    31     7    28 1
    32     8    29 1
    33    12    30 1
    34    14    31 1
    35    15    32 1
    36    16    33 1
    37    16    34 1
    38    18    35 1
    39    23    36 1
    40    23    37 1
    41    23    38 1
    42    24    39 1
@<TRIPOS>SUBSTRUCTURE
     1 5DF         1 TEMP              0 ****  ****    0 ROOT
