@<TRIPOS>MOLECULE
molecule
   53    56     1     0     0
SMALL
bcc


@<TRIPOS>ATOM
      1 C01          0.0000     0.0000     0.0000 c3         1 5DG      -0.048900
      2 C02          1.5080     0.0000     0.0000 ce         1 5DG      -0.048400
      3 C03          2.2430     0.0000     1.2730 ca         1 5DG      -0.025800
      4 C04          3.0120    -1.1100     1.6410 ca         1 5DG      -0.137000
      5 C05          3.7010    -1.1060     2.8360 ca         1 5DG      -0.096000
      6 C06          3.6350    -0.0090     3.6740 ca         1 5DG      -0.174000
      7 C07          2.8740     1.1000     3.3200 ca         1 5DG       0.168600
      8 N08          2.8110     2.2050     4.1720 nu         1 5DG      -0.687000
      9 C09          1.6440     2.9730     4.2380 ca         1 5DG       0.165600
     10 C10          0.4110     2.3890     3.9700 ca         1 5DG      -0.159500
     11 C11         -0.7400     3.1490     4.0360 ca         1 5DG      -0.134500
     12 C12         -0.6670     4.4910     4.3670 ca         1 5DG       0.093900
     13 F13         -1.7940     5.2330     4.4290 f          1 5DG      -0.144900
     14 C14          0.5600     5.0750     4.6330 ca         1 5DG      -0.134500
     15 C15          1.7140     4.3180     4.5750 ca         1 5DG      -0.159500
     16 C16          2.1810     1.1110     2.1190 ca         1 5DG      -0.166000
     17 C17          2.1850    -0.0010    -1.1750 cf         1 5DG      -0.023400
     18 C18          1.4510    -0.1270    -2.4520 ca         1 5DG      -0.054300
     19 C19          1.4520     0.9270    -3.3670 ca         1 5DG      -0.100500
     20 C20          0.7670     0.8070    -4.5570 ca         1 5DG      -0.154250
     21 C21          0.0750    -0.3630    -4.8470 ca         1 5DG       0.105100
     22 O22         -0.5990    -0.4790    -6.0200 oh         1 5DG      -0.523100
     23 C23          0.0730    -1.4140    -3.9390 ca         1 5DG      -0.154250
     24 C24          0.7600    -1.3030    -2.7500 ca         1 5DG      -0.100500
     25 C25          3.6590     0.1240    -1.1780 ca         1 5DG      -0.054300
     26 C26          4.4510    -0.9430    -1.6050 ca         1 5DG      -0.100500
     27 C27          5.8240    -0.8220    -1.6080 ca         1 5DG      -0.154250
     28 C28          6.4200     0.3590    -1.1850 ca         1 5DG       0.105100
     29 O29          7.7740     0.4730    -1.1840 oh         1 5DG      -0.523100
     30 C30          5.6360     1.4230    -0.7600 ca         1 5DG      -0.154250
     31 C31          4.2620     1.3120    -0.7600 ca         1 5DG      -0.100500
     32 H1          -0.3610     0.8210    -0.6070 hc         1 5DG       0.047367
     33 H2          -0.3610     0.1160     1.0150 hc         1 5DG       0.047367
     34 H3          -0.3610    -0.9370    -0.4070 hc         1 5DG       0.047367
     35 H5           3.0660    -1.9720     0.9870 ha         1 5DG       0.136000
     36 H6           4.2960    -1.9660     3.1190 ha         1 5DG       0.134000
     37 H7           4.1790    -0.0120     4.6110 ha         1 5DG       0.132000
     38 H8           3.6050     2.4520     4.7300 hn         1 5DG       0.450800
     39 H9           0.3540     1.3390     3.7110 ha         1 5DG       0.144500
     40 H10         -1.7010     2.6940     3.8270 ha         1 5DG       0.146000
     41 H11          0.6140     6.1250     4.8940 ha         1 5DG       0.146000
     42 H12          2.6740     4.7760     4.7830 ha         1 5DG       0.144500
     43 H13          1.5880     1.9730     1.8420 ha         1 5DG       0.146000
     44 H15          1.9910     1.8400    -3.1420 ha         1 5DG       0.138250
     45 H16          0.7670     1.6250    -5.2670 ha         1 5DG       0.140500
     46 H17         -1.4830    -0.1700    -5.9060 ho         1 5DG       0.418500
     47 H18         -0.4650    -2.3260    -4.1700 ha         1 5DG       0.140500
     48 H19          0.7570    -2.1240    -2.0430 ha         1 5DG       0.138250
     49 H20          3.9880    -1.8650    -1.9350 ha         1 5DG       0.138250
     50 H21          6.4400    -1.6500    -1.9390 ha         1 5DG       0.140500
     51 H22          8.0650     0.7790    -2.0270 ho         1 5DG       0.418500
     52 H23          6.1040     2.3430    -0.4330 ha         1 5DG       0.140500
     53 H24          3.6510     2.1430    -0.4280 ha         1 5DG       0.138250
@<TRIPOS>BOND
     1    13    12 1
     2    14    12 ar
     3    14    15 ar
     4    12    11 ar
     5    15     9 ar
     6    11    10 ar
     7     9    10 ar
     8     9     8 1
     9     6     5 ar
    10     6     7 ar
    11     8     7 1
    12     5     4 ar
    13     7    16 ar
    14     4     3 ar
    15    16     3 ar
    16     3     2 1
    17     2     1 1
    18     2    17 2
    19    29    28 1
    20    28    30 ar
    21    28    27 ar
    22    30    31 ar
    23    27    26 ar
    24    31    25 ar
    25    26    25 ar
    26    25    17 1
    27    17    18 1
    28    24    18 ar
    29    24    23 ar
    30    18    19 ar
    31    23    21 ar
    32    19    20 ar
    33    21    20 ar
    34    21    22 1
    35     1    32 1
    36     1    33 1
    37     1    34 1
    38     4    35 1
    39     5    36 1
    40     6    37 1
    41     8    38 1
    42    10    39 1
    43    11    40 1
    44    14    41 1
    45    15    42 1
    46    16    43 1
    47    19    44 1
    48    20    45 1
    49    22    46 1
    50    23    47 1
    51    24    48 1
    52    26    49 1
    53    27    50 1
    54    29    51 1
    55    30    52 1
    56    31    53 1
@<TRIPOS>SUBSTRUCTURE
     1 5DG         1 TEMP              0 ****  ****    0 ROOT
