@<TRIPOS>MOLECULE
5DG
   53    56     1     0     0
SMALL
bcc


@<TRIPOS>ATOM
      1 C01          0.0000     0.0000     0.0000 c3         1 5DG       0.054100
      2 C02          1.5080     0.0000     0.0000 ce         1 5DG      -0.059400
      3 C03          2.2430     0.0000     1.2730 ca         1 5DG      -0.012800
      4 C04          3.0120    -1.1100     1.6410 ca         1 5DG      -0.117000
      5 C05          3.7010    -1.1060     2.8360 ca         1 5DG      -0.065000
      6 C06          3.6350    -0.0090     3.6740 ca         1 5DG      -0.150000
      7 C07          2.8740     1.1000     3.3200 ca         1 5DG       0.018600
      8 N08          2.8110     2.2050     4.1720 nu         1 5DG      -0.232000
      9 C09          1.6440     2.9730     4.2380 ca         1 5DG       0.018600
     10 C10          0.4110     2.3890     3.9700 ca         1 5DG      -0.138000
     11 C11         -0.7400     3.1490     4.0360 ca         1 5DG      -0.095500
     12 C12         -0.6670     4.4910     4.3670 ca         1 5DG       0.063900
     13 F13         -1.7940     5.2330     4.4290 f          1 5DG      -0.130900
     14 C14          0.5600     5.0750     4.6330 ca         1 5DG      -0.095500
     15 C15          1.7140     4.3180     4.5750 ca         1 5DG      -0.138000
     16 C16          2.1810     1.1110     2.1190 ca         1 5DG      -0.149000
     17 C17          2.1850    -0.0010    -1.1750 cf         1 5DG      -0.014400
     18 C18          1.4510    -0.1270    -2.4520 ca         1 5DG      -0.055800
     19 C19          1.4520     0.9270    -3.3670 ca         1 5DG      -0.071000
     20 C20          0.7670     0.8070    -4.5570 ca         1 5DG      -0.139250
     21 C21          0.0750    -0.3630    -4.8470 ca         1 5DG       0.123600
     22 O22         -0.5990    -0.4790    -6.0200 oh         1 5DG      -0.501100
     23 C23          0.0730    -1.4140    -3.9390 ca         1 5DG      -0.139250
     24 C24          0.7600    -1.3030    -2.7500 ca         1 5DG      -0.071000
     25 C25          3.6590     0.1240    -1.1780 ca         1 5DG      -0.055800
     26 C26          4.4510    -0.9430    -1.6050 ca         1 5DG      -0.071000
     27 C27          5.8240    -0.8220    -1.6080 ca         1 5DG      -0.139250
     28 C28          6.4200     0.3590    -1.1850 ca         1 5DG       0.123600
     29 O29          7.7740     0.4730    -1.1840 oh         1 5DG      -0.501100
     30 C30          5.6360     1.4230    -0.7600 ca         1 5DG      -0.139250
     31 C31          4.2620     1.3120    -0.7600 ca         1 5DG      -0.071000
     32 H1          -0.3610    -0.9370    -0.4070 hc         1 5DG       0.012700
     33 H2          -0.3610     0.8210    -0.6070 hc         1 5DG       0.012700
     34 H3          -0.3610     0.1160     1.0150 hc         1 5DG       0.012700
     35 H5           3.0660    -1.9720     0.9870 ha         1 5DG       0.112000
     36 H6           4.2960    -1.9660     3.1190 ha         1 5DG       0.103000
     37 H7           4.1790    -0.0120     4.6110 ha         1 5DG       0.108000
     38 H8           3.6050     2.4530     4.7300 hn         1 5DG       0.287800
     39 H9           0.3540     1.3390     3.7110 ha         1 5DG       0.120500
     40 H10         -1.7010     2.6940     3.8270 ha         1 5DG       0.116500
     41 H11          0.6140     6.1250     4.8940 ha         1 5DG       0.116500
     42 H12          2.6740     4.7760     4.7830 ha         1 5DG       0.120500
     43 H13          1.5880     1.9730     1.8420 ha         1 5DG       0.128000
     44 H15          1.9910     1.8400    -3.1420 ha         1 5DG       0.109750
     45 H16          0.7670     1.6250    -5.2670 ha         1 5DG       0.113500
     46 H17         -1.4830    -0.1700    -5.9060 ho         1 5DG       0.402000
     47 H18         -0.4650    -2.3260    -4.1700 ha         1 5DG       0.113500
     48 H19          0.7570    -2.1240    -2.0430 ha         1 5DG       0.109750
     49 H20          3.9880    -1.8650    -1.9350 ha         1 5DG       0.109750
     50 H21          6.4400    -1.6500    -1.9390 ha         1 5DG       0.113500
     51 H22          8.0650     0.7810    -2.0270 ho         1 5DG       0.402000
     52 H23          6.1040     2.3430    -0.4330 ha         1 5DG       0.113500
     53 H24          3.6510     2.1430    -0.4280 ha         1 5DG       0.109750
@<TRIPOS>BOND
     1     1     2 1   
     2     1    32 1   
     3     1    33 1   
     4     1    34 1   
     5     2     3 1   
     6     2    17 2   
     7     3     4 ar  
     8     3    16 ar  
     9     4     5 ar  
    10     4    35 1   
    11     5     6 ar  
    12     5    36 1   
    13     6     7 ar  
    14     6    37 1   
    15     7     8 1   
    16     7    16 ar  
    17     8     9 1   
    18     8    38 1   
    19     9    10 ar  
    20     9    15 ar  
    21    10    11 ar  
    22    10    39 1   
    23    11    12 ar  
    24    11    40 1   
    25    12    13 1   
    26    12    14 ar  
    27    14    15 ar  
    28    14    41 1   
    29    15    42 1   
    30    16    43 1   
    31    17    18 1   
    32    17    25 1   
    33    18    19 ar  
    34    18    24 ar  
    35    19    20 ar  
    36    19    44 1   
    37    20    21 ar  
    38    20    45 1   
    39    21    22 1   
    40    21    23 ar  
    41    22    46 1   
    42    23    24 ar  
    43    23    47 1   
    44    24    48 1   
    45    25    26 ar  
    46    25    31 ar  
    47    26    27 ar  
    48    26    49 1   
    49    27    28 ar  
    50    27    50 1   
    51    28    29 1   
    52    28    30 ar  
    53    29    51 1   
    54    30    31 ar  
    55    30    52 1   
    56    31    53 1   
@<TRIPOS>SUBSTRUCTURE
     1 5DG         1 TEMP              0 ****  ****    0 ROOT
