@<TRIPOS>MOLECULE
molecule
   39    41     1     0     0
SMALL
bcc


@<TRIPOS>ATOM
      1 N01         -1.2850     0.2300    -2.2110 n1         1 5DH      -0.360800
      2 C02         -0.7160     0.1180    -1.2350 cg         1 5DH       0.206500
      3 C03          0.0000     0.0000     0.0000 ce         1 5DH       0.035100
      4 C04          1.3860     0.0000     0.0000 cf         1 5DH       0.052600
      5 C05          2.1230     0.0000     1.2770 ca         1 5DH      -0.089300
      6 C06          2.8770    -1.1160     1.6520 ca         1 5DH      -0.096750
      7 C07          3.5640    -1.1130     2.8450 ca         1 5DH      -0.147750
      8 C08          3.5090    -0.0010     3.6770 ca         1 5DH       0.102100
      9 O09          4.1880    -0.0020     4.8540 oh         1 5DH      -0.505600
     10 C10          2.7620     1.1120     3.3090 ca         1 5DH      -0.147750
     11 C11          2.0760     1.1180     2.1150 ca         1 5DH      -0.096750
     12 C12          2.1230     0.0020    -1.2780 ca         1 5DH      -0.089300
     13 C13          2.0310     1.0980    -2.1400 ca         1 5DH      -0.096750
     14 C14          2.7220     1.0950    -3.3310 ca         1 5DH      -0.147750
     15 C15          3.5100     0.0040    -3.6770 ca         1 5DH       0.102100
     16 O16          4.1850     0.0030    -4.8550 oh         1 5DH      -0.505600
     17 C17          3.6040    -1.0880    -2.8240 ca         1 5DH      -0.147750
     18 C18          2.9220    -1.0920    -1.6270 ca         1 5DH      -0.096750
     19 C19         -0.7400    -0.1170     1.2760 ca         1 5DH      -0.078800
     20 C20         -1.5100     0.9500     1.7390 ca         1 5DH      -0.139000
     21 C21         -2.1990     0.8350     2.9280 ca         1 5DH      -0.132500
     22 C22         -2.1250    -0.3360     3.6630 ca         1 5DH      -0.066000
     23 C23         -1.3620    -1.3970     3.2090 ca         1 5DH      -0.132500
     24 C24         -0.6740    -1.2970     2.0180 ca         1 5DH      -0.139000
     25 H3           2.7890    -1.9430     0.9580 ha         1 5DH       0.143500
     26 H4           4.1190    -2.0310     2.9970 ha         1 5DH       0.145750
     27 H5           5.0820     0.1330     4.5850 ho         1 5DH       0.417500
     28 H6           2.7080     1.7930     4.1500 ha         1 5DH       0.145750
     29 H7           1.1620     1.5380     1.7120 ha         1 5DH       0.143500
     30 H8           1.7240     1.9780    -1.5870 ha         1 5DH       0.143500
     31 H9           2.6020     1.9940    -3.9230 ha         1 5DH       0.145750
     32 H10          3.7830    -0.6740    -5.3750 ho         1 5DH       0.417500
     33 H11          4.2420    -1.8550    -3.2460 ha         1 5DH       0.145750
     34 H12          2.9990    -2.0600    -1.1470 ha         1 5DH       0.143500
     35 H13         -1.4930     1.8540     1.1420 ha         1 5DH       0.136500
     36 H14         -2.6180     1.8300     3.0110 ha         1 5DH       0.157000
     37 H15         -2.7390    -0.5690     4.5240 ha         1 5DH       0.137000
     38 H16         -0.8570    -2.3250     3.4490 ha         1 5DH       0.157000
     39 H17         -0.4600    -2.1330     1.3640 ha         1 5DH       0.136500
@<TRIPOS>BOND
     1    22    21 ar
     2    22    23 ar
     3    21    20 ar
     4    23    24 ar
     5    20    19 ar
     6    24    19 ar
     7    19     3 1
     8     3     2 1
     9     3     4 2
    10    16    15 1
    11     2     1 3
    12    15    17 ar
    13    15    14 ar
    14    17    18 ar
    15    14    13 ar
    16    18    12 ar
    17    13    12 ar
    18    12     4 1
    19     4     5 1
    20    11     5 ar
    21    11    10 ar
    22     5     6 ar
    23    10     8 ar
    24     6     7 ar
    25     8     7 ar
    26     8     9 1
    27     6    25 1
    28     7    26 1
    29     9    27 1
    30    10    28 1
    31    11    29 1
    32    13    30 1
    33    14    31 1
    34    16    32 1
    35    17    33 1
    36    18    34 1
    37    20    35 1
    38    21    36 1
    39    22    37 1
    40    23    38 1
    41    24    39 1
@<TRIPOS>SUBSTRUCTURE
     1 5DH         1 TEMP              0 ****  ****    0 ROOT
