@<TRIPOS>MOLECULE
5DH
   39    41     1     0     0
SMALL
bcc


@<TRIPOS>ATOM
      1 N01         -1.2700     0.1990    -2.2230 n1         1 5DH      -0.386800
      2 C02         -0.7160     0.1180    -1.2350 cg         1 5DH       0.202500
      3 C03          0.0000     0.0000     0.0000 ce         1 5DH       0.080100
      4 C04          1.3860     0.0000     0.0000 cf         1 5DH       0.067600
      5 C05          2.1230     0.0000     1.2770 ca         1 5DH      -0.083800
      6 C06          2.8770    -1.1160     1.6520 ca         1 5DH      -0.063250
      7 C07          3.5640    -1.1130     2.8450 ca         1 5DH      -0.135750
      8 C08          3.5090    -0.0010     3.6770 ca         1 5DH       0.134100
      9 O09          4.1880    -0.0020     4.8540 oh         1 5DH      -0.500600
     10 C10          2.7620     1.1120     3.3090 ca         1 5DH      -0.135750
     11 C11          2.0760     1.1180     2.1150 ca         1 5DH      -0.063250
     12 C12          2.1230     0.0020    -1.2780 ca         1 5DH      -0.083800
     13 C13          2.0310     1.0980    -2.1400 ca         1 5DH      -0.063250
     14 C14          2.7220     1.0950    -3.3310 ca         1 5DH      -0.135750
     15 C15          3.5100     0.0040    -3.6770 ca         1 5DH       0.134100
     16 O16          4.1850     0.0030    -4.8550 oh         1 5DH      -0.500600
     17 C17          3.6040    -1.0880    -2.8240 ca         1 5DH      -0.135750
     18 C18          2.9220    -1.0920    -1.6270 ca         1 5DH      -0.063250
     19 C19         -0.7400    -0.1170     1.2760 ca         1 5DH      -0.054800
     20 C20         -1.5100     0.9500     1.7390 ca         1 5DH      -0.082000
     21 C21         -2.1990     0.8350     2.9280 ca         1 5DH      -0.101000
     22 C22         -2.1250    -0.3360     3.6630 ca         1 5DH      -0.093000
     23 C23         -1.3620    -1.3970     3.2090 ca         1 5DH      -0.101000
     24 C24         -0.6740    -1.2970     2.0180 ca         1 5DH      -0.082000
     25 H3           2.9200    -1.9830     1.0030 ha         1 5DH       0.110000
     26 H4           4.1490    -1.9770     3.1360 ha         1 5DH       0.116500
     27 H5           3.6250    -0.3180     5.5410 ho         1 5DH       0.405000
     28 H6           2.7220     1.9760     3.9610 ha         1 5DH       0.116500
     29 H7           1.4960     1.9870     1.8270 ha         1 5DH       0.110000
     30 H8           1.4160     1.9490    -1.8710 ha         1 5DH       0.110000
     31 H9           2.6510     1.9440    -4.0010 ha         1 5DH       0.116500
     32 H10          3.6460    -0.3840    -5.5260 ho         1 5DH       0.405000
     33 H11          4.2200    -1.9370    -3.0960 ha         1 5DH       0.116500
     34 H12          3.0000    -1.9410    -0.9590 ha         1 5DH       0.110000
     35 H13         -1.5680     1.8660     1.1630 ha         1 5DH       0.109000
     36 H14         -2.7980     1.6620     3.2900 ha         1 5DH       0.104500
     37 H15         -2.6670    -0.4240     4.5970 ha         1 5DH       0.103000
     38 H16         -1.3070    -2.3110     3.7880 ha         1 5DH       0.104500
     39 H17         -0.0800    -2.1290     1.6600 ha         1 5DH       0.109000
@<TRIPOS>BOND
     1     1     2 3   
     2     2     3 1   
     3     3     4 2   
     4     3    19 1   
     5     4     5 1   
     6     4    12 1   
     7     5     6 ar  
     8     5    11 ar  
     9     6     7 ar  
    10     6    25 1   
    11     7     8 ar  
    12     7    26 1   
    13     8     9 1   
    14     8    10 ar  
    15     9    27 1   
    16    10    11 ar  
    17    10    28 1   
    18    11    29 1   
    19    12    13 ar  
    20    12    18 ar  
    21    13    14 ar  
    22    13    30 1   
    23    14    15 ar  
    24    14    31 1   
    25    15    16 1   
    26    15    17 ar  
    27    16    32 1   
    28    17    18 ar  
    29    17    33 1   
    30    18    34 1   
    31    19    20 ar  
    32    19    24 ar  
    33    20    21 ar  
    34    20    35 1   
    35    21    22 ar  
    36    21    36 1   
    37    22    23 ar  
    38    22    37 1   
    39    23    24 ar  
    40    23    38 1   
    41    24    39 1   
@<TRIPOS>SUBSTRUCTURE
     1 5DH         1 TEMP              0 ****  ****    0 ROOT
