@<TRIPOS>MOLECULE
molecule
   38    40     1     0     0
SMALL
bcc


@<TRIPOS>ATOM
      1 C01          0.0000     0.0000     0.0000 ca         1 5DJ      -0.096000
      2 C06          1.3790     0.0000     0.0000 ca         1 5DJ      -0.153250
      3 C05          2.0740     0.0000     1.2020 ca         1 5DJ       0.110100
      4 O01          3.4330     0.0000     1.1980 oh         1 5DJ      -0.521600
      5 C04          1.3860    -0.0010     2.4070 ca         1 5DJ      -0.153250
      6 C03          0.0070    -0.0000     2.4150 ca         1 5DJ      -0.096000
      7 C02         -0.6960    -0.0000     1.2100 ca         1 5DJ      -0.087800
      8 C14         -2.1760    -0.0000     1.2140 ce         1 5DJ       0.110600
      9 C07         -2.9130     1.1490     1.7840 ca         1 5DJ      -0.087800
     10 C08         -3.7020     0.9790     2.9220 ca         1 5DJ      -0.096000
     11 C09         -4.3880     2.0510     3.4490 ca         1 5DJ      -0.153250
     12 C10         -4.2950     3.3000     2.8500 ca         1 5DJ       0.110100
     13 O02         -4.9730     4.3550     3.3720 oh         1 5DJ      -0.521600
     14 C11         -3.5120     3.4740     1.7160 ca         1 5DJ      -0.153250
     15 C12         -2.8180     2.4070     1.1860 ca         1 5DJ      -0.096000
     16 C13         -2.8550    -1.0530     0.6960 cf         1 5DJ      -0.372200
     17 C15         -2.1300    -2.2610     0.2740 ca         1 5DJ      -0.114800
     18 C16         -0.9720    -2.6580     0.9520 ca         1 5DJ      -0.112500
     19 C17         -0.2980    -3.7920     0.5510 ca         1 5DJ      -0.138000
     20 C18         -0.7640    -4.5360    -0.5190 ca         1 5DJ      -0.107000
     21 C19         -1.9090    -4.1500    -1.1940 ca         1 5DJ      -0.138000
     22 C20         -2.5980    -3.0220    -0.8020 ca         1 5DJ      -0.112500
     23 H1          -0.5420    -0.0000    -0.9380 ha         1 5DJ       0.139500
     24 H2           1.9200     0.0000    -0.9380 ha         1 5DJ       0.143250
     25 H3           3.7470     0.8890     1.1970 ho         1 5DJ       0.420000
     26 H4           1.9320    -0.0010     3.3430 ha         1 5DJ       0.143250
     27 H5          -0.5290    -0.0010     3.3560 ha         1 5DJ       0.139500
     28 H6          -3.7750     0.0050     3.3910 ha         1 5DJ       0.139500
     29 H7          -5.0000     1.9200     4.3330 ha         1 5DJ       0.143250
     30 H8          -4.4320     4.7940     4.0070 ho         1 5DJ       0.420000
     31 H9          -3.4410     4.4500     1.2520 ha         1 5DJ       0.143250
     32 H10         -2.2080     2.5430     0.3020 ha         1 5DJ       0.139500
     33 H11         -2.3940    -1.1170    -0.2820 ha         1 5DJ       0.315000
     34 H12         -0.6060    -2.0770     1.7890 ha         1 5DJ       0.148500
     35 H13          0.5990    -4.1010     1.0740 ha         1 5DJ       0.134000
     36 H14         -0.2290    -5.4250    -0.8310 ha         1 5DJ       0.131000
     37 H15         -2.2680    -4.7400    -2.0290 ha         1 5DJ       0.134000
     38 H16         -3.4940    -2.7220    -1.3320 ha         1 5DJ       0.148500
@<TRIPOS>BOND
     1    20    21 ar  
     2    20    19 ar  
     3    21    22 ar  
     4    19    18 ar  
     5    22    17 ar  
     6    18    17 ar  
     7    17    16 1   
     8    16     8 2   
     9    15    14 ar  
    10    15     9 ar  
    11     8     9 1   
    12     8     7 1   
    13    14    12 ar  
    14     1     7 ar  
    15     1     2 ar  
    16     9    10 ar  
    17     7     6 ar  
    18     2     3 ar  
    19    12    13 1   
    20    12    11 ar  
    21     6     5 ar  
    22     3     5 ar  
    23     3     4 1   
    24    10    11 ar  
    25     1    23 1   
    26     2    24 1   
    27     4    25 1   
    28     5    26 1   
    29     6    27 1   
    30    10    28 1   
    31    11    29 1   
    32    13    30 1   
    33    14    31 1   
    34    15    32 1   
    35    16    33 1   
    36    18    34 1   
    37    19    35 1   
    38    20    36 1   
    39    21    37 1   
    40    22    38 1   
@<TRIPOS>SUBSTRUCTURE
     1 5DJ         1 TEMP              0 ****  ****    0 ROOT
