@<TRIPOS>MOLECULE
molecule
   47    47     1     0     0
SMALL
bcc


@<TRIPOS>ATOM
      1 C2           0.0000     0.0000     0.0000 ca         1 5DK       0.334600
      2 C3           1.3880     0.0000     0.0000 ca         1 5DK       0.010800
      3 C4           2.0650     0.0000     1.2300 ca         1 5DK      -0.131900
      4 C5           1.3020     0.0000     2.4020 ca         1 5DK      -0.153600
      5 C6          -0.0750     0.0010     2.3060 ca         1 5DK       0.425200
      6 CB           6.2290     1.2470    -0.4590 c3         1 5DK      -0.051400
      7 O3           2.0790    -0.0010    -1.1690 oh         1 5DK      -0.497100
      8 O4P          0.9770     0.0000     4.7780 os         1 5DK      -0.588200
      9 N            4.2270    -0.0020     0.1890 n2         1 5DK      -0.548900
     10 P            1.3380     0.0010     6.3480 p5         1 5DK       1.200900
     11 C2A         -0.7440    -0.0000    -1.3110 c3         1 5DK      -0.127400
     12 C4A          3.5400    -0.0000     1.2840 ce         1 5DK       0.434800
     13 C5A          1.9720    -0.0000     3.7520 c3         1 5DK       0.253700
     14 N1          -0.6750    -0.0050     1.1300 nb         1 5DK      -0.705000
     15 CA           5.6920    -0.0020     0.2430 c3         1 5DK       0.010500
     16 C            6.2200    -1.2330    -0.4480 c          1 5DK       0.903600
     17 OXT          5.4510    -2.0280    -0.9350 o          1 5DK      -0.834800
     18 CD           6.3320     3.7420    -0.3870 c3         1 5DK      -0.017200
     19 NE           5.9170     4.9350     0.3540 nu         1 5DK      -0.812200
     20 CZ           6.2850     6.1840    -0.0910 c2         1 5DK       0.693100
     21 NH1          7.0410     6.3120    -1.2310 nz         1 5DK      -0.805600
     22 NH2          5.9150     7.2460     0.5690 n2         1 5DK      -0.879100
     23 O            7.5430    -1.4460    -0.5210 o          1 5DK      -0.834800
     24 H1          -0.6730    -0.0020     3.2090 h4         1 5DK       0.070100
     25 H2           5.8350     1.2920    -1.4670 hc         1 5DK       0.055700
     26 H3           7.3110     1.2030    -0.4960 hc         1 5DK       0.055700
     27 H4           1.9840    -0.8400    -1.5890 ho         1 5DK       0.416000
     28 H9          -1.8050     0.1140    -1.1240 hc         1 5DK       0.033367
     29 H10         -0.3960     0.8220    -1.9240 hc         1 5DK       0.033367
     30 H11         -0.5670    -0.9360    -1.8270 hc         1 5DK       0.033367
     31 H12          4.0470     0.0010     2.2410 h4         1 5DK      -0.015200
     32 H14          2.5900     0.8840     3.8480 h1         1 5DK       0.039200
     33 H15          2.5890    -0.8850     3.8480 h1         1 5DK       0.039200
     34 H16          6.0150    -0.0020     1.2770 h1         1 5DK       0.031700
     35 H18          4.7130     2.5370     0.3530 hc         1 5DK       0.060700
     36 H19          6.1890     2.4480     1.3240 hc         1 5DK       0.060700
     37 H20          6.9520     3.7440    -1.2760 h1         1 5DK       0.110200
     38 H21          6.8890     3.2920     0.4260 h1         1 5DK       0.110200
     39 H22          5.3440     4.8440     1.1700 hn         1 5DK       0.497800
     40 H23          6.5480     5.9140    -2.0050 hn         1 5DK       0.389467
     41 H24          7.2160     7.2810    -1.4090 hn         1 5DK       0.389467
     42 H25          6.1820     8.1550     0.2470 hn         1 5DK       0.401400
     43 O1P          2.0820    -1.3760     6.7270 o          1 5DK      -0.809833
     44 O2P         -0.0160     0.1330     7.2090 o          1 5DK      -0.809833
     45 O3P          2.2280     1.1430     6.6500 o          1 5DK      -0.809833
     46 HH13         7.9120     5.8330    -1.1090 hn         1 5DK       0.389467
     47 CG           5.7950     2.4940     0.3160 c3         1 5DK      -0.053400
@<TRIPOS>BOND
     1    22    20 2
     2    20    19 1
     3    20    21 1
     4    19    18 1
     5    23    16 1
     6    16    17 1
     7    16    15 1
     8    47    18 1
     9    47     6 1
    10     6    15 1
    11    15     9 1
    12     9    12 2
    13    45    10 1
    14    43    10 1
    15    12     3 1
    16    10     8 1
    17    10    44 1
    18     7     2 1
    19     8    13 1
    20     3     2 ar
    21     3     4 ar
    22     2     1 ar
    23    13     4 1
    24     4     5 ar
    25     1    11 1
    26     1    14 ar
    27     5    14 ar
    28     5    24 1
    29     6    25 1
    30     6    26 1
    31     7    27 1
    32    11    28 1
    33    11    29 1
    34    11    30 1
    35    12    31 1
    36    13    32 1
    37    13    33 1
    38    15    34 1
    39    47    35 1
    40    47    36 1
    41    18    37 1
    42    18    38 1
    43    19    39 1
    44    21    40 1
    45    21    41 1
    46    22    42 1
    47    46    21 1
@<TRIPOS>SUBSTRUCTURE
     1 5DK         1 TEMP              0 ****  ****    0 ROOT
