@<TRIPOS>MOLECULE
molecule
   21    21     1     0     0
SMALL
bcc


@<TRIPOS>ATOM
      1 N1           0.0000     0.0000     0.0000 nc         1 5DL      -0.526800
      2 C3           1.7830     0.0000     1.2910 cc         1 5DL       0.421400
      3 N2           1.4050     0.0000     0.0000 na         1 5DL      -0.021400
      4 C8           2.7570    -1.1120    -3.3590 c3         1 5DL      -0.246600
      5 C7           1.9270    -1.1830    -2.0760 c3         1 5DL       0.174100
      6 C6           2.2840    -0.0000    -1.1720 c3         1 5DL       0.029300
      7 C5          -0.3780    -0.0000     1.2510 cd         1 5DL       0.521900
      8 O10          3.1890    -2.4420    -5.7920 o          1 5DL      -0.910500
      9 O11          2.3130    -3.7400    -3.8120 o          1 5DL      -0.910500
     10 O12          0.7090    -2.1650    -4.9610 o          1 5DL      -0.910500
     11 O13          2.2060    -2.4060    -1.3940 oh         1 5DL      -0.602800
     12 N4           0.7040    -0.0000     2.0290 nd         1 5DL      -0.816000
     13 H1           2.8030     0.0000     1.6550 h5         1 5DL       0.055100
     14 H2           2.6120    -0.1480    -3.8300 hc         1 5DL       0.027200
     15 H3           3.8050    -1.2420    -3.1180 hc         1 5DL       0.027200
     16 H4           0.8730    -1.1410    -2.3260 h1         1 5DL       0.071700
     17 H5           3.3140    -0.0890    -0.8510 h1         1 5DL       0.055700
     18 H6           2.1550     0.9250    -1.7200 h1         1 5DL       0.055700
     19 H7          -1.4040    -0.0000     1.5990 h5         1 5DL       0.054100
     20 H10          1.4160    -2.9160    -1.3260 ho         1 5DL       0.411000
     21 P9           2.2280    -2.4330    -4.4990 p5         1 5DL       1.040700
@<TRIPOS>BOND
     1     9    21 1
     2     8    21 1
     3    21    10 1
     4    21     4 1
     5     4     5 1
     6     5     6 1
     7     5    11 1
     8     6     3 1
     9     2     3 1
    10     2    12 2
    11     3     1 1
    12    12     7 1
    13     1     7 2
    14     2    13 1
    15     4    14 1
    16     4    15 1
    17     5    16 1
    18     6    17 1
    19     6    18 1
    20     7    19 1
    21    11    20 1
@<TRIPOS>SUBSTRUCTURE
     1 5DL         1 TEMP              0 ****  ****    0 ROOT
