@<TRIPOS>MOLECULE
molecule
   29    31     1     0     0
SMALL
bcc


@<TRIPOS>ATOM
      1 O01          0.0000     0.0000     0.0000 o          1 5DN      -0.820800
      2 C02          1.3470     0.0000     0.0000 c          1 5DN       0.885200
      3 O03          1.9540     0.0000     1.0520 o          1 5DN      -0.820800
      4 C04          2.0860    -0.0020    -1.2790 ca         1 5DN      -0.041600
      5 C05          1.4250    -0.1190    -2.4950 ca         1 5DN      -0.229300
      6 C06          2.1670    -0.1150    -3.6850 cp         1 5DN       0.471800
      7 C07          1.4490    -0.2420    -4.9760 cp         1 5DN      -0.125500
      8 C08          0.0600    -0.3570    -4.9970 ca         1 5DN      -0.101000
      9 C09         -0.6030    -0.4740    -6.2010 ca         1 5DN      -0.140000
     10 C10          0.1070    -0.4780    -7.3880 ca         1 5DN      -0.113000
     11 C11          1.4870    -0.3650    -7.3750 ca         1 5DN      -0.029900
     12 Br           2.4500    -0.3710    -9.0020 br         1 5DN      -0.125100
     13 C13          2.1610    -0.2410    -6.1750 ca         1 5DN      -0.070000
     14 N14          3.4790    -0.0030    -3.6960 nb         1 5DN      -0.707000
     15 C15          4.1930     0.1150    -2.5770 ca         1 5DN       0.381600
     16 C16          5.5980     0.2340    -2.6200 ca         1 5DN       0.062600
     17 F17          6.2440     0.2300    -3.8070 f          1 5DN      -0.145900
     18 C18          6.3000     0.3530    -1.4580 ca         1 5DN      -0.171000
     19 C19          5.6550     0.3580    -0.2250 ca         1 5DN      -0.156000
     20 C20          4.2970     0.2440    -0.1460 ca         1 5DN      -0.086000
     21 C21          3.5430     0.1280    -1.3170 ca         1 5DN      -0.125300
     22 H2           0.3680    -0.3550    -2.5160 ha         1 5DN       0.163000
     23 H3          -0.4980    -0.3550    -4.0680 ha         1 5DN       0.156000
     24 H4          -1.6830    -0.5630    -6.2160 ha         1 5DN       0.130000
     25 H5          -0.4180    -0.5700    -8.3310 ha         1 5DN       0.130000
     26 H6           3.2410    -0.1530    -6.1660 ha         1 5DN       0.171000
     27 H7           7.3790     0.4440    -1.4950 ha         1 5DN       0.124000
     28 H8           6.2380     0.4540     0.6830 ha         1 5DN       0.122000
     29 H9           3.8060     0.2500     0.8200 ha         1 5DN       0.209000
@<TRIPOS>BOND
     1     3     2 1
     2     2     1 1
     3     2     4 1
     4    20    19 ar
     5    20    21 ar
     6    19    18 ar
     7     4    21 ar
     8     4     5 ar
     9    21    15 ar
    10     5     6 ar
    11    18    16 ar
    12    15    16 ar
    13    15    14 ar
    14    16    17 1
    15     6    14 ar
    16     6     7 1
    17     8     7 ar
    18     8     9 ar
    19     7    13 ar
    20     9    10 ar
    21    13    11 ar
    22    10    11 ar
    23    11    12 1
    24     5    22 1
    25     8    23 1
    26     9    24 1
    27    10    25 1
    28    13    26 1
    29    18    27 1
    30    19    28 1
    31    20    29 1
@<TRIPOS>SUBSTRUCTURE
     1 5DN         1 TEMP              0 ****  ****    0 ROOT
