@<TRIPOS>MOLECULE
molecule
   45    48     1     0     0
SMALL
bcc


@<TRIPOS>ATOM
      1 C1           0.0000     0.0000     0.0000 ca         1 5DQ      -0.102500
      2 C5           0.0100     0.0000     2.4130 ca         1 5DQ      -0.102500
      3 C2           1.3790     0.0000     0.0000 ca         1 5DQ      -0.082500
      4 C4           1.3900     0.0000     2.4000 ca         1 5DQ      -0.082500
      5 C13         -6.6470     0.0000     1.7950 ca         1 5DQ      -0.135300
      6 C14         -6.5420     0.0010     0.4130 ca         1 5DQ       0.400200
      7 C6          -0.6960    -0.0000     1.2090 ca         1 5DQ      -0.082900
      8 C3           2.0730     0.0000     1.1980 ca         1 5DQ      -0.166300
      9 C10         -4.2700     0.0020     1.9150 ca         1 5DQ      -0.135500
     10 C12         -5.4970     0.0010     2.5650 ca         1 5DQ      -0.272500
     11 C9          -4.2330     0.0010     0.5080 ca         1 5DQ       0.572300
     12 C7          -2.1740     0.0010     1.2160 cc         1 5DQ       0.492400
     13 C22         -5.3330     5.1070     4.5070 c3         1 5DQ      -0.083900
     14 C23         -6.2650     4.7590     5.6850 c3         1 5DQ      -0.083900
     15 C21         -4.5320     3.8050     4.2580 c3         1 5DQ      -0.095400
     16 C24         -6.4300     3.2290     5.6780 c3         1 5DQ      -0.095400
     17 C20         -5.5930     2.7000     4.4940 c3         1 5DQ       0.240500
     18 C25          3.5810    -0.0010     1.1900 c3         1 5DQ       0.673200
     19 N15         -5.3720     0.0010    -0.1860 nb         1 5DQ      -0.601000
     20 N11         -2.9570     0.0000     2.3380 na         1 5DQ      -0.256300
     21 N8          -2.9340     0.0010     0.1470 nd         1 5DQ      -0.650700
     22 N19         -4.9460     1.4350     4.8480 n7         1 5DQ      -0.909100
     23 O17         -6.9690     0.0370     4.6560 o          1 5DQ      -0.632800
     24 O18         -4.7070    -1.0200     4.7720 o          1 5DQ      -0.632800
     25 F26          4.0470     1.3180     1.1880 f          1 5DQ      -0.220633
     26 F27          4.0510    -0.6600     2.3310 f          1 5DQ      -0.220633
     27 F28          4.0410    -0.6610     0.0460 f          1 5DQ      -0.220633
     28 H1          -0.5420    -0.0000    -0.9380 ha         1 5DQ       0.152500
     29 H2           1.9200     0.0000    -0.9390 ha         1 5DQ       0.155000
     30 H5          -0.5230     0.0010     3.3560 ha         1 5DQ       0.152500
     31 H4           1.9400     0.0010     3.3330 ha         1 5DQ       0.155000
     32 H13         -7.6220    -0.0000     2.2680 ha         1 5DQ       0.169000
     33 H14         -7.4440     0.0000    -0.1880 h4         1 5DQ       0.037100
     34 H11         -2.6410    -0.1520     3.2750 hn         1 5DQ       0.318700
     35 H222        -4.6650     5.9150     4.7800 hc         1 5DQ       0.047950
     36 H231        -5.8160     5.0770     6.6180 hc         1 5DQ       0.047950
     37 H232        -7.2280     5.2350     5.5480 hc         1 5DQ       0.047950
     38 H211        -3.7200     3.7140     4.9690 hc         1 5DQ       0.054200
     39 H212        -4.1660     3.7710     3.2390 hc         1 5DQ       0.054200
     40 H241        -6.0600     2.8120     6.6070 hc         1 5DQ       0.054200
     41 H242        -7.4730     2.9700     5.5370 hc         1 5DQ       0.054200
     42 H20         -6.2150     2.5820     3.6160 h1         1 5DQ       0.067700
     43 H19         -4.1240     1.4370     5.4200 hn         1 5DQ       0.453800
     44 S16         -5.5880     0.0010     4.3260 sy         1 5DQ       1.418200
     45 H221        -5.9140     5.3660     3.6300 hc         1 5DQ       0.047950
@<TRIPOS>BOND
     1     1     3 ar  
     2     1     7 ar  
     3     2     4 ar  
     4     2     7 ar  
     5     3     8 ar  
     6     4     8 ar  
     7     5     6 ar  
     8     5    10 ar  
     9     6    19 ar  
    10     7    12 1   
    11     8    18 1   
    12     9    10 ar  
    13     9    11 ar  
    14     9    20 1   
    15    10    44 1   
    16    11    19 ar  
    17    11    21 1   
    18    12    20 1   
    19    12    21 2   
    20    13    14 1   
    21    13    15 1   
    22    14    16 1   
    23    15    17 1   
    24    16    17 1   
    25    17    22 1   
    26    18    25 1   
    27    18    26 1   
    28    18    27 1   
    29    22    44 1   
    30    23    44 2   
    31    24    44 2   
    32     1    28 1   
    33     3    29 1   
    34     2    30 1   
    35     4    31 1   
    36     5    32 1   
    37     6    33 1   
    38    20    34 1   
    39    13    45 1   
    40    13    35 1   
    41    14    36 1   
    42    14    37 1   
    43    15    38 1   
    44    15    39 1   
    45    16    40 1   
    46    16    41 1   
    47    17    42 1   
    48    22    43 1   
@<TRIPOS>SUBSTRUCTURE
     1 5DQ         1 TEMP              0 ****  ****    0 ROOT
