@<TRIPOS>MOLECULE
molecule
   49    51     1     0     0
SMALL
bcc


@<TRIPOS>ATOM
      1 N1           0.0000     0.0000     0.0000 nb         1 5DR      -0.869000
      2 C2           1.3240     0.0000     0.0000 ca         1 5DR       0.988900
      3 N3           2.0260     0.0000     1.1240 nb         1 5DR      -0.833000
      4 C4           1.4270    -0.0010     2.3040 ca         1 5DR       0.556600
      5 C5           0.0340    -0.0030     2.3560 ca         1 5DR      -0.347600
      6 C6          -0.6800    -0.0010     1.1410 ca         1 5DR       0.783200
      7 CAA          2.5150     1.4400     4.0030 c3         1 5DR      -0.085100
      8 CAB         -1.2880    -4.3180     5.0160 c3         1 5DR       0.087700
      9 NAC          1.9950     0.0010    -1.2090 nv         1 5DR      -0.997500
     10 NAD         -2.0620    -0.0020     1.1360 nv         1 5DR      -0.989500
     11 CAE         -1.2110    -0.0230     4.6460 c1         1 5DR      -0.166100
     12 CAF         -0.6550    -0.0040     3.6120 cg         1 5DR      -0.083000
     13 CAG         -9.0490    -3.3680     7.9410 ca         1 5DR      -0.262000
     14 CAH         -9.0740    -2.7950     6.5880 ca         1 5DR      -0.054500
     15 CAI         -7.6800    -3.9200     8.2710 ca         1 5DR      -0.054500
     16 CAJ         -7.9370    -2.7190     5.5880 ca         1 5DR      -0.278500
     17 CAK         -6.6390    -3.9150     7.5070 ca         1 5DR      -0.278500
     18 CAL         -5.2500    -3.5160     5.5520 ca         1 5DR      -0.362000
     19 CAM         -3.7470    -3.9690     5.2790 ca         1 5DR       0.079000
     20 CAN         -4.9160    -1.3310     5.4080 ca         1 5DR      -0.116000
     21 CAO          2.2400    -0.0030     3.5730 c3         1 5DR      -0.135700
     22 CAP         -1.6020    -0.0350     6.1760 c3         1 5DR       0.145000
     23 OAS         -2.0640    -3.5760     5.8570 os         1 5DR      -0.314900
     24 CAV         -6.4840    -3.3510     6.0490 cp         1 5DR       0.091000
     25 CAW         -5.4010    -2.3490     5.5390 cp         1 5DR      -0.127000
     26 CAX         -3.3120    -1.6550     5.1110 ca         1 5DR       0.048700
     27 CAZ         -3.0880    -3.0510     5.1180 ca         1 5DR      -0.053900
     28 HAA          2.7970     1.4560     5.0490 hc         1 5DR       0.040367
     29 HAAA         1.6210     2.0350     3.8610 hc         1 5DR       0.040367
     30 HAAB         3.3200     1.8480     3.4050 hc         1 5DR       0.040367
     31 HAB         -1.3870    -5.3680     5.2660 h1         1 5DR       0.037367
     32 HABA        -0.2520    -4.0180     5.1210 h1         1 5DR       0.037367
     33 HABB        -1.6080    -4.1580     3.9930 h1         1 5DR       0.037367
     34 HNAC         1.5650     0.3990    -2.0200 hn         1 5DR       0.449800
     35 HNAA         2.9150    -0.3890    -1.2710 hn         1 5DR       0.449800
     36 HNAD        -2.5650     0.1150     1.9930 hn         1 5DR       0.449300
     37 HNAB        -2.5590    -0.1600     0.2820 hn         1 5DR       0.449300
     38 HAG         -9.9020    -3.3980     8.6070 ha         1 5DR       0.148000
     39 HAH        -10.0350    -2.4390     6.2390 ha         1 5DR       0.109500
     40 HAI         -7.5770    -4.4340     9.2190 ha         1 5DR       0.109500
     41 HAJ         -8.0630    -2.2160     4.6380 ha         1 5DR       0.131000
     42 HAK         -5.7300    -4.3010     7.9520 ha         1 5DR       0.131000
     43 HAL         -6.0850    -4.2040     5.5990 ha         1 5DR       0.354000
     44 HAM         -3.4260    -5.0020     5.2370 ha         1 5DR       0.151000
     45 HAN         -5.4090    -0.3680     5.4440 ha         1 5DR       0.165000
     46 HAO          3.2210    -0.4160     3.3730 hc         1 5DR       0.062200
     47 HAOA         1.7400    -0.6050     4.3210 hc         1 5DR       0.062200
     48 HAP         -0.7650    -0.3050     6.8090 hc         1 5DR       0.086200
     49 HAPA        -2.0780     0.8890     6.4820 hc         1 5DR       0.086200
@<TRIPOS>BOND
     1     1     6 ar
     2     1     2 ar
     3     9     2 1
     4     2     3 ar
     5     3     4 ar
     6     5     4 ar
     7     4    21 1
     8     6     5 ar
     9     5    12 1
    10    10     6 1
    11    21     7 1
    12     7    28 1
    13     7    29 1
    14     7    30 1
    15    23     8 1
    16     8    31 1
    17     8    32 1
    18     8    33 1
    19     9    34 1
    20     9    35 1
    21    10    36 1
    22    10    37 1
    23    12    11 3
    24    11    22 1
    25    14    13 ar
    26    13    15 ar
    27    13    38 1
    28    14    16 ar
    29    14    39 1
    30    15    17 ar
    31    15    40 1
    32    16    24 ar
    33    16    41 1
    34    24    17 ar
    35    17    42 1
    36    25    18 ar
    37    18    19 ar
    38    18    43 1
    39    27    19 ar
    40    19    44 1
    41    20    26 ar
    42    20    25 ar
    43    20    45 1
    44    21    46 1
    45    21    47 1
    46    22    26 1
    47    22    48 1
    48    22    49 1
    49    27    23 1
    50    24    25 1
    51    26    27 ar
@<TRIPOS>SUBSTRUCTURE
     1 5DR         1 TEMP              0 ****  ****    0 ROOT
