@<TRIPOS>MOLECULE
5DR
   49    51     1     0     0
SMALL
bcc


@<TRIPOS>ATOM
      1 N1         -0.7270    2.1870    0.6850 nb        1 5DR     -0.831000
      2 C2          0.4310    2.7260    1.2100 ca        1 5DR      0.914900
      3 N3          1.0900    2.2790    2.3530 nb        1 5DR     -0.788000
      4 C4          0.5140    1.2670    3.0250 ca        1 5DR      0.538600
      5 C5         -0.6930    0.6520    2.5970 ca        1 5DR     -0.344600
      6 C6         -1.2840    1.1440    1.3770 ca        1 5DR      0.745200
      7 CAA         2.2760    1.5680    4.8350 c3        1 5DR     -0.083100
      8 CAB        -4.5610   -5.4740    6.3220 c3        1 5DR      0.113700
      9 NAC         0.9570    3.8520    0.5710 nh        1 5DR     -0.931500
     10 NAD        -2.4060    0.5320    0.8580 nh        1 5DR     -0.953500
     11 CAE        -1.8060   -1.2820    3.9250 c1        1 5DR     -0.150100
     12 CAF        -1.2860   -0.3890    3.3150 cg        1 5DR     -0.095000
     13 CAG        -7.0880    3.4030    6.0330 ca        1 5DR     -0.129000
     14 CAH        -7.9260    2.3160    5.7830 ca        1 5DR     -0.130000
     15 CAI        -5.7260    3.1920    6.2470 ca        1 5DR     -0.130000
     16 CAJ        -7.4070    1.0240    5.7480 ca        1 5DR     -0.121500
     17 CAK        -5.2020    1.9020    6.2120 ca        1 5DR     -0.121500
     18 CAL        -6.1990   -1.6190    6.4880 ca        1 5DR     -0.087000
     19 CAM        -5.6800   -2.9110    6.4550 ca        1 5DR     -0.201000
     20 CAN        -4.2480   -0.7950    5.3220 ca        1 5DR     -0.084000
     21 CAO         1.1610    0.7280    4.2720 c3        1 5DR     -0.137700
     22 CAP        -2.3900   -2.3740    4.6420 c3        1 5DR      0.057000
     23 OAS        -3.8380   -4.3830    5.7630 os        1 5DR     -0.330900
     24 CAV        -6.0380    0.8040    5.9620 cp        1 5DR     -0.032000
     25 CAW        -5.4920   -0.5510    5.9250 cp        1 5DR     -0.068000
     26 CAX        -3.7100   -2.0780    5.2710 ca        1 5DR     -0.101300
     27 CAZ        -4.4410   -3.1420    5.8490 ca        1 5DR      0.122100
     28 HAA         3.1300    1.6370    4.1180 hc        1 5DR      0.040033
     29 HAAA        2.6480    1.1070    5.7830 hc        1 5DR      0.040033
     30 HAAB        1.9230    2.6030    5.0590 hc        1 5DR      0.040033
     31 HAB        -4.7120   -5.3270    7.4190 h1        1 5DR      0.045367
     32 HABA       -5.5430   -5.6040    5.8050 h1        1 5DR      0.045367
     33 HABB       -3.8940   -6.3530    6.1290 h1        1 5DR      0.045367
     34 HNAC        1.8950    4.0930    0.7870 hn        1 5DR      0.429300
     35 HNAA        0.6520    4.0270   -0.3580 hn        1 5DR      0.429300
     36 HNAD       -2.9040   -0.0840    1.4540 hn        1 5DR      0.436300
     37 HNAB       -2.8980    0.9630    0.1130 hn        1 5DR      0.436300
     38 HAG        -7.5000    4.4220    6.0600 ha        1 5DR      0.131000
     39 HAH        -9.0010    2.4790    5.6110 ha        1 5DR      0.132000
     40 HAI        -5.0620    4.0460    6.4460 ha        1 5DR      0.132000
     41 HAJ        -8.0710    0.1710    5.5440 ha        1 5DR      0.134500
     42 HAK        -4.1280    1.7400    6.3880 ha        1 5DR      0.134500
     43 HAL        -7.1720   -1.4380    6.9700 ha        1 5DR      0.137000
     44 HAM        -6.2500   -3.7350    6.9070 ha        1 5DR      0.138000
     45 HAN        -3.6880    0.0430    4.8760 ha        1 5DR      0.148000
     46 HAO         0.3540    0.6070    5.0460 hc        1 5DR      0.063700
     47 HAOA        1.5460   -0.3000    4.0270 hc        1 5DR      0.063700
     48 HAP        -1.6790   -2.7090    5.4530 hc        1 5DR      0.077200
     49 HAPA       -2.5160   -3.2540    3.9440 hc        1 5DR      0.077200
@<TRIPOS>BOND
     1    1    2 ar  
     2    1    6 ar  
     3    2    3 ar  
     4    2    9 1   
     5    3    4 ar  
     6    4    5 ar  
     7    4   21 1   
     8    5    6 ar  
     9    5   12 1   
    10    6   10 1   
    11    7   21 1   
    12    7   28 1   
    13    7   29 1   
    14    7   30 1   
    15    8   23 1   
    16    8   31 1   
    17    8   32 1   
    18    8   33 1   
    19    9   34 1   
    20    9   35 1   
    21   10   36 1   
    22   10   37 1   
    23   11   12 3   
    24   11   22 1   
    25   13   14 ar  
    26   13   15 ar  
    27   13   38 1   
    28   14   16 ar  
    29   14   39 1   
    30   15   17 ar  
    31   15   40 1   
    32   16   24 ar  
    33   16   41 1   
    34   17   24 ar  
    35   17   42 1   
    36   18   19 ar  
    37   18   25 ar  
    38   18   43 1   
    39   19   27 ar  
    40   19   44 1   
    41   20   25 ar  
    42   20   26 ar  
    43   20   45 1   
    44   21   46 1   
    45   21   47 1   
    46   22   26 1   
    47   22   48 1   
    48   22   49 1   
    49   23   27 1   
    50   24   25 1   
    51   26   27 ar  
@<TRIPOS>SUBSTRUCTURE
     1 5DR         1 TEMP              0 ****  ****    0 ROOT
