@<TRIPOS>MOLECULE
5DS
   27    27     1     0     0
SMALL
bcc


@<TRIPOS>ATOM
      1 C1           0.0000     0.0000     0.0000 c3         1 5DS       0.156100
      2 N1           1.4640     0.0000     0.0000 nh         1 5DS      -0.214300
      3 C2           2.1970     0.0000     1.2690 c3         1 5DS       0.156100
      4 C3           2.1590    -0.0010    -1.2010 cc         1 5DS       0.662300
      5 S1           3.9220    -0.0030    -1.5130 ss         1 5DS      -0.421800
      6 N2           1.7060    -0.0070    -2.4480 nd         1 5DS      -0.398000
      7 N3           2.4870    -0.0040    -3.4380 nd         1 5DS      -0.099000
      8 C4           3.7980    -0.0040    -3.2990 cc         1 5DS       0.086700
      9 C5           4.8820    -0.0050    -4.3460 c3         1 5DS       0.020000
     10 N4           6.0670     0.6880    -3.8230 nz         1 5DS       0.057400
     11 S2           4.2890     0.8480    -5.8320 s6         1 5DS       0.864900
     12 O2           4.1570     2.2460    -5.6160 o          1 5DS      -0.413800
     13 O3           3.2940     0.0910    -6.5080 o          1 5DS      -0.413800
     14 N5           5.5820     0.7560    -6.8610 nz         1 5DS      -0.185500
     15 H11         -0.3610     0.0680     1.0190 h1         1 5DS       0.049533
     16 H12         -0.3610     0.8490    -0.5680 h1         1 5DS       0.049533
     17 H13         -0.3610    -0.9170    -0.4510 h1         1 5DS       0.049533
     18 H21          2.8600    -0.8560     1.3040 h1         1 5DS       0.049533
     19 H22          2.7780     0.9110     1.3510 h1         1 5DS       0.049533
     20 H23          1.4940    -0.0550     2.0920 h1         1 5DS       0.049533
     21 H5           5.1430    -1.0270    -4.5950 hx         1 5DS       0.130700
     22 HN41         5.9780     0.8000    -2.8320 hn         1 5DS       0.243800
     23 HN42         6.1450     1.5870    -4.2550 hn         1 5DS       0.243800
     24 HN51         5.2740     0.9160    -7.8000 hn         1 5DS       0.327467
     25 HN52         5.9960    -0.1530    -6.7970 hn         1 5DS       0.327467
     26 H43          6.8800     0.1270    -3.9850 hn         1 5DS       0.243800
     27 H53          6.2670     1.4370    -6.5980 hn         1 5DS       0.327467
@<TRIPOS>BOND
     1     1     2 1   
     2     1    15 1   
     3     1    16 1   
     4     1    17 1   
     5     2     3 1   
     6     2     4 1   
     7     3    18 1   
     8     3    19 1   
     9     3    20 1   
    10     4     5 1   
    11     4     6 2   
    12     5     8 1   
    13     6     7 1   
    14     7     8 2   
    15     8     9 1   
    16     9    10 1   
    17     9    11 1   
    18     9    21 1   
    19    10    22 1   
    20    10    23 1   
    21    10    26 1   
    22    11    12 2   
    23    11    13 2   
    24    11    14 1   
    25    14    24 1   
    26    14    25 1   
    27    14    27 1   
@<TRIPOS>SUBSTRUCTURE
     1 5DS         1 TEMP              0 ****  ****    0 ROOT
