@<TRIPOS>MOLECULE
molecule
   50    52     1     0     0
SMALL
bcc


@<TRIPOS>ATOM
      1 F32          0.0000     0.0000     0.0000 f          1 5DT      -0.087900
      2 C6           1.3510     0.0000     0.0000 ca         1 5DT       0.137900
      3 C1           2.0480     0.0000     1.2020 ca         1 5DT       0.027900
      4 S11          1.1690    -0.0010     2.7290 ss         1 5DT      -0.228000
      5 C21          0.9670    -1.7700     3.0820 c3         1 5DT       0.013700
      6 C24          0.2090    -1.9430     4.4000 c3         1 5DT      -0.017100
      7 C29          0.0420    -3.4120     4.6930 ca         1 5DT      -0.099300
      8 C28         -1.0700    -4.0860     4.2270 ca         1 5DT      -0.121000
      9 C27         -1.2250    -5.4330     4.4960 ca         1 5DT      -0.122000
     10 C31          1.0020    -4.0840     5.4250 ca         1 5DT      -0.121000
     11 C30          0.8480    -5.4320     5.6930 ca         1 5DT      -0.122000
     12 C26         -0.2670    -6.1060     5.2310 ca         1 5DT      -0.117000
     13 C5           2.0460    -0.0050    -1.2030 ca         1 5DT       0.197600
     14 C4           3.4340    -0.0040    -1.2020 ca         1 5DT      -0.347500
     15 S7           4.3160    -0.0120    -2.7280 sy         1 5DT       1.260200
     16 O9           3.4350    -0.5610    -3.6980 o          1 5DT      -0.499800
     17 N10          4.5610     1.5690    -3.1590 nz         1 5DT      -0.810500
     18 O8           5.5990    -0.5540    -2.4470 o          1 5DT      -0.499800
     19 C3           4.1280     0.0000    -0.0030 ca         1 5DT       0.166900
     20 F12          5.4790     0.0030    -0.0050 f          1 5DT      -0.092900
     21 C2           3.4390     0.0000     1.1970 ca         1 5DT       0.148900
     22 F13          4.1170     0.0000     2.3660 f          1 5DT      -0.075900
     23 N25          1.3480    -0.0110    -2.4160 nu         1 5DT      -0.833600
     24 C14          0.4900     1.1750    -2.5350 c3         1 5DT       0.248100
     25 C15         -0.2450     1.1350    -3.8500 ca         1 5DT      -0.120300
     26 C20         -1.4800     0.5190    -3.9320 ca         1 5DT      -0.110500
     27 C19         -2.1540     0.4800    -5.1390 ca         1 5DT      -0.117000
     28 C18         -1.5930     1.0580    -6.2620 ca         1 5DT      -0.101000
     29 C17         -0.3580     1.6730    -6.1800 ca         1 5DT      -0.117000
     30 C16          0.3130     1.7170    -4.9730 ca         1 5DT      -0.110500
     31 H1           1.9420    -2.2350     3.1620 h1         1 5DT       0.071200
     32 H2           0.4090    -2.2370     2.2800 h1         1 5DT       0.071200
     33 H3          -0.7650    -1.4770     4.3200 hc         1 5DT       0.066200
     34 H4           0.7680    -1.4760     5.2020 hc         1 5DT       0.066200
     35 H5          -1.8210    -3.5590     3.6510 ha         1 5DT       0.131000
     36 H6          -2.0980    -5.9610     4.1320 ha         1 5DT       0.137500
     37 H7           1.8760    -3.5560     5.7870 ha         1 5DT       0.131000
     38 H8           1.6000    -5.9590     6.2680 ha         1 5DT       0.137500
     39 H9          -0.3880    -7.1620     5.4420 ha         1 5DT       0.138000
     40 H10          4.3110     1.6950    -4.1200 hn         1 5DT       0.495133
     41 H11          5.5250     1.8040    -3.0310 hn         1 5DT       0.495133
     42 H12          1.0610    -0.8790    -2.8240 hn         1 5DT       0.476800
     43 H13          1.1010     2.0690    -2.4900 h1         1 5DT       0.044700
     44 H14         -0.2260     1.1860    -1.7220 h1         1 5DT       0.044700
     45 H15         -1.9200     0.0670    -3.0510 ha         1 5DT       0.118500
     46 H16         -3.1220    -0.0020    -5.2040 ha         1 5DT       0.143500
     47 H17         -2.1200     1.0250    -7.2080 ha         1 5DT       0.147000
     48 H18          0.0810     2.1280    -7.0610 ha         1 5DT       0.143500
     49 H19          1.2810     2.1990    -4.9080 ha         1 5DT       0.118500
     50 H103         3.9890     2.1620    -2.5900 hn         1 5DT       0.495133
@<TRIPOS>BOND
     1    29    28 ar  
     2    29    30 ar  
     3    28    27 ar  
     4    30    25 ar  
     5    27    26 ar  
     6    25    26 ar  
     7    25    24 1   
     8    24    23 1   
     9     1     2 1   
    10     8     9 ar  
    11     8     7 ar  
    12     9    12 ar  
    13     4     3 1   
    14     4     5 1   
    15     2     3 ar  
    16     2    13 ar  
    17     6     7 1   
    18     6     5 1   
    19    23    13 1   
    20     7    10 ar  
    21    12    11 ar  
    22     3    21 ar  
    23    13    14 ar  
    24    10    11 ar  
    25    21    22 1   
    26    21    19 ar  
    27    14    19 ar  
    28    14    15 1   
    29    17    15 1   
    30    19    20 1   
    31    15    16 2   
    32    15    18 2   
    33     5    31 1   
    34     5    32 1   
    35     6    33 1   
    36     6    34 1   
    37     8    35 1   
    38     9    36 1   
    39    10    37 1   
    40    11    38 1   
    41    12    39 1   
    42    17    40 1   
    43    17    41 1   
    44    23    42 1   
    45    24    43 1   
    46    24    44 1   
    47    26    45 1   
    48    27    46 1   
    49    28    47 1   
    50    29    48 1   
    51    30    49 1   
    52    50    17 1   
@<TRIPOS>SUBSTRUCTURE
     1 5DT         1 TEMP              0 ****  ****    0 ROOT
