@<TRIPOS>MOLECULE
5DT
   50    52     1     0     0
SMALL
bcc


@<TRIPOS>ATOM
      1 F32          0.0000     0.0000     0.0000 f          1 5DT      -0.085900
      2 C6           1.3510     0.0000     0.0000 ca         1 5DT       0.129900
      3 C1           2.0480     0.0000     1.2020 ca         1 5DT       0.055900
      4 S11          1.1690    -0.0010     2.7290 ss         1 5DT      -0.306000
      5 C21          0.9670    -1.7700     3.0820 c3         1 5DT       0.108700
      6 C24          0.2090    -1.9430     4.4000 c3         1 5DT       0.055900
      7 C29          0.0420    -3.4120     4.6930 ca         1 5DT      -0.114300
      8 C28         -1.0700    -4.0860     4.2270 ca         1 5DT      -0.094000
      9 C27         -1.2250    -5.4330     4.4960 ca         1 5DT      -0.093500
     10 C31          1.0020    -4.0840     5.4250 ca         1 5DT      -0.094000
     11 C30          0.8480    -5.4320     5.6930 ca         1 5DT      -0.093500
     12 C26         -0.2670    -6.1060     5.2310 ca         1 5DT      -0.088000
     13 C5           2.0460    -0.0050    -1.2030 ca         1 5DT       0.107600
     14 C4           3.4340    -0.0040    -1.2020 ca         1 5DT      -0.216500
     15 S7           4.3160    -0.0120    -2.7280 sy         1 5DT       0.951200
     16 O9           3.4350    -0.5610    -3.6980 o          1 5DT      -0.477800
     17 N10          4.5610     1.5690    -3.1590 nz         1 5DT      -0.143500
     18 O8           5.5990    -0.5540    -2.4470 o          1 5DT      -0.477800
     19 C3           4.1280     0.0000    -0.0030 ca         1 5DT       0.168900
     20 F12          5.4790     0.0030    -0.0050 f          1 5DT      -0.087900
     21 C2           3.4390     0.0000     1.1970 ca         1 5DT       0.145900
     22 F13          4.1170     0.0000     2.3660 f          1 5DT      -0.077900
     23 N25          1.3480    -0.0110    -2.4160 nu         1 5DT      -0.499600
     24 C14          0.4900     1.1750    -2.5350 c3         1 5DT       0.212100
     25 C15         -0.2450     1.1350    -3.8500 ca         1 5DT      -0.132300
     26 C20         -1.4800     0.5190    -3.9320 ca         1 5DT      -0.081500
     27 C19         -2.1540     0.4800    -5.1390 ca         1 5DT      -0.087500
     28 C18         -1.5930     1.0580    -6.2620 ca         1 5DT      -0.071000
     29 C17         -0.3580     1.6730    -6.1800 ca         1 5DT      -0.087500
     30 C16          0.3130     1.7170    -4.9730 ca         1 5DT      -0.081500
     31 H1           1.9420    -2.2350     3.1620 h1         1 5DT       0.042200
     32 H2           0.4090    -2.2370     2.2800 h1         1 5DT       0.042200
     33 H3          -0.7650    -1.4770     4.3200 hc         1 5DT       0.035700
     34 H4           0.7680    -1.4760     5.2020 hc         1 5DT       0.035700
     35 H5          -1.8210    -3.5590     3.6510 ha         1 5DT       0.106000
     36 H6          -2.0980    -5.9610     4.1320 ha         1 5DT       0.108500
     37 H7           1.8760    -3.5560     5.7870 ha         1 5DT       0.106000
     38 H8           1.6000    -5.9590     6.2680 ha         1 5DT       0.108500
     39 H9          -0.3880    -7.1620     5.4420 ha         1 5DT       0.109000
     40 H10          4.3110     1.6950    -4.1200 hn         1 5DT       0.319133
     41 H11          5.5250     1.8040    -3.0310 hn         1 5DT       0.319133
     42 H12          1.0610    -0.8790    -2.8240 hn         1 5DT       0.346800
     43 H13          1.1010     2.0690    -2.4900 h1         1 5DT       0.015700
     44 H14         -0.2260     1.1860    -1.7220 h1         1 5DT       0.015700
     45 H15         -1.9200     0.0670    -3.0510 ha         1 5DT       0.091500
     46 H16         -3.1220    -0.0020    -5.2040 ha         1 5DT       0.112500
     47 H17         -2.1200     1.0250    -7.2080 ha         1 5DT       0.115000
     48 H18          0.0810     2.1280    -7.0610 ha         1 5DT       0.112500
     49 H19          1.2810     2.1990    -4.9080 ha         1 5DT       0.091500
     50 H103         3.9890     2.1620    -2.5900 hn         1 5DT       0.319133
@<TRIPOS>BOND
     1     1     2 1   
     2     2     3 ar  
     3     2    13 ar  
     4     3     4 1   
     5     3    21 ar  
     6     4     5 1   
     7     5     6 1   
     8     5    31 1   
     9     5    32 1   
    10     6     7 1   
    11     6    33 1   
    12     6    34 1   
    13     7     8 ar  
    14     7    10 ar  
    15     8     9 ar  
    16     8    35 1   
    17     9    12 ar  
    18     9    36 1   
    19    10    11 ar  
    20    10    37 1   
    21    11    12 ar  
    22    11    38 1   
    23    12    39 1   
    24    13    14 ar  
    25    13    23 1   
    26    14    15 1   
    27    14    19 ar  
    28    15    16 2   
    29    15    17 1   
    30    15    18 2   
    31    17    40 1   
    32    17    41 1   
    33    17    50 1   
    34    19    20 1   
    35    19    21 ar  
    36    21    22 1   
    37    23    24 1   
    38    23    42 1   
    39    24    25 1   
    40    24    43 1   
    41    24    44 1   
    42    25    26 ar  
    43    25    30 ar  
    44    26    27 ar  
    45    26    45 1   
    46    27    28 ar  
    47    27    46 1   
    48    28    29 ar  
    49    28    47 1   
    50    29    30 ar  
    51    29    48 1   
    52    30    49 1   
@<TRIPOS>SUBSTRUCTURE
     1 5DT         1 TEMP              0 ****  ****    0 ROOT
