@<TRIPOS>MOLECULE
5DU
   45    47     1     0     0
SMALL
bcc


@<TRIPOS>ATOM
      1 F13          0.0000     0.0000     0.0000 f          1 5DU      -0.086900
      2 C9           1.3520     0.0000     0.0000 ca         1 5DU       0.133900
      3 C8           2.0470     0.0000     1.2020 ca         1 5DU       0.051900
      4 S24          1.1690    -0.0000     2.7300 ss         1 5DU      -0.295000
      5 C25          0.9660    -1.7680     3.0830 c3         1 5DU       0.088700
      6 C26          0.2090    -1.9400     4.4010 c3         1 5DU       0.247400
      7 O27          0.0480    -3.3330     4.6790 oh         1 5DU      -0.589800
      8 C7           3.4380     0.0000     1.1990 ca         1 5DU       0.148900
      9 F12          4.1170    -0.0010     2.3660 f          1 5DU      -0.076900
     10 C6           4.1280    -0.0000    -0.0020 ca         1 5DU       0.167900
     11 F11          5.4780    -0.0020    -0.0040 f          1 5DU      -0.086900
     12 C10          2.0470    -0.0050    -1.2030 ca         1 5DU       0.109600
     13 C5           3.4350    -0.0010    -1.2010 ca         1 5DU      -0.212500
     14 S1           4.3170    -0.0070    -2.7260 sy         1 5DU       0.954200
     15 O3           3.4370    -0.5600    -3.6960 o          1 5DU      -0.478300
     16 N4           4.5570     1.5730    -3.1600 nz         1 5DU      -0.160500
     17 O2           5.6010    -0.5460    -2.4460 o          1 5DU      -0.478300
     18 N14          1.3470    -0.0100    -2.4150 nu         1 5DU      -0.487600
     19 C15          0.5810     1.2310    -2.5860 c3         1 5DU       0.192800
     20 C19         -0.7920     0.9280    -3.1460 ca         1 5DU      -0.159300
     21 C20         -1.9280     0.4410    -2.5220 ca         1 5DU      -0.062000
     22 C21         -3.0870     0.2390    -3.2470 ca         1 5DU      -0.091000
     23 C22         -3.1130     0.5220    -4.5990 ca         1 5DU      -0.067000
     24 C23         -1.9790     1.0070    -5.2240 ca         1 5DU      -0.076000
     25 C18         -0.8180     1.2100    -4.5000 ca         1 5DU      -0.082300
     26 C17          0.5360     1.7240    -4.9410 c3         1 5DU       0.043900
     27 C16          1.2550     2.1370    -3.6390 c3         1 5DU      -0.012400
     28 H1           0.4080    -2.2350     2.2810 h1         1 5DU       0.049200
     29 H2           1.9410    -2.2340     3.1640 h1         1 5DU       0.049200
     30 H3           0.7680    -1.4740     5.2030 h1         1 5DU       0.002700
     31 H4          -0.7660    -1.4740     4.3210 h1         1 5DU       0.002700
     32 H5          -0.4190    -3.4400     5.4910 ho         1 5DU       0.409000
     33 H6           4.0010     2.1670    -2.5780 hn         1 5DU       0.324133
     34 H7           4.2910     1.7000    -4.1170 hn         1 5DU       0.324133
     35 H8           0.9960    -0.8710    -2.7860 hn         1 5DU       0.347800
     36 H9           0.4920     1.7570    -1.6430 h1         1 5DU       0.035700
     37 H10         -1.9090     0.2180    -1.4620 ha         1 5DU       0.110000
     38 H11         -3.9750    -0.1410    -2.7560 ha         1 5DU       0.116000
     39 H12         -4.0210     0.3640    -5.1690 ha         1 5DU       0.116000
     40 H13         -2.0000     1.2290    -6.2850 ha         1 5DU       0.112000
     41 H14          0.4170     2.5820    -5.5910 hc         1 5DU       0.030200
     42 H15          1.0890     0.9390    -5.4420 hc         1 5DU       0.030200
     43 H16          1.0760     3.1820    -3.4170 hc         1 5DU      -0.011300
     44 H17          2.3160     1.9250    -3.7040 hc         1 5DU      -0.011300
     45 H43          5.5220     1.8100    -3.0370 hn         1 5DU       0.324133
@<TRIPOS>BOND
     1     1     2 1   
     2     2     3 ar  
     3     2    12 ar  
     4     3     4 1   
     5     3     8 ar  
     6     4     5 1   
     7     5     6 1   
     8     5    28 1   
     9     5    29 1   
    10     6     7 1   
    11     6    30 1   
    12     6    31 1   
    13     7    32 1   
    14     8     9 1   
    15     8    10 ar  
    16    10    11 1   
    17    10    13 ar  
    18    12    13 ar  
    19    12    18 1   
    20    13    14 1   
    21    14    15 2   
    22    14    16 1   
    23    14    17 2   
    24    16    33 1   
    25    16    34 1   
    26    16    45 1   
    27    18    19 1   
    28    18    35 1   
    29    19    20 1   
    30    19    27 1   
    31    19    36 1   
    32    20    21 ar  
    33    20    25 ar  
    34    21    22 ar  
    35    21    37 1   
    36    22    23 ar  
    37    22    38 1   
    38    23    24 ar  
    39    23    39 1   
    40    24    25 ar  
    41    24    40 1   
    42    25    26 1   
    43    26    27 1   
    44    26    41 1   
    45    26    42 1   
    46    27    43 1   
    47    27    44 1   
@<TRIPOS>SUBSTRUCTURE
     1 5DU         1 TEMP              0 ****  ****    0 ROOT
