@<TRIPOS>MOLECULE
molecule
   48    50     1     0     0
SMALL
bcc


@<TRIPOS>ATOM
      1 NBB         -0.8760    -0.0190    -2.4570 n1         1 5DV      -0.336800
      2 CBA         -0.4920     0.0000    -1.3890 c1         1 5DV       0.200700
      3 CAZ          0.0000     0.0000     0.0000 c3         1 5DV      -0.037300
      4 CAY          1.5300     0.0000     0.0000 c3         1 5DV      -0.044100
      5 CAT          2.0320     0.0000     1.4200 ca         1 5DV      -0.077300
      6 CAS          2.2630    -1.1970     2.0720 ca         1 5DV      -0.035000
      7 CAU          2.2680     1.1980     2.0710 ca         1 5DV      -0.083000
      8 CAV          2.7280     1.1970     3.3740 ca         1 5DV      -0.115300
      9 CAX          2.9850     2.5030     4.0820 c3         1 5DV      -0.063800
     10 CAW          2.9530     0.0000     4.0270 ca         1 5DV      -0.104000
     11 CAR          2.7230    -1.1970     3.3760 ca         1 5DV      -0.295500
     12 PAO          3.0260    -2.7680     4.2310 py         1 5DV       1.350800
     13 OAQ          4.3290    -2.6280     5.1650 os         1 5DV      -0.560200
     14 CBC          4.8880    -3.7250     5.8890 c3         1 5DV       0.151700
     15 OAP          3.2470    -3.8380     3.2330 o          1 5DV      -0.788300
     16 CAI          1.5890    -3.1840     5.2560 cc         1 5DV      -0.174800
     17 CAE          1.5170    -3.0980     6.6670 ca         1 5DV      -0.101800
     18 CAF          2.4290    -2.7050     7.6550 ca         1 5DV      -0.079000
     19 CAA          2.0610    -2.7290     8.9690 ca         1 5DV      -0.003600
     20 Cl           3.1940    -2.2410    10.1910 cl         1 5DV      -0.058400
     21 CAB          0.7850    -3.1400     9.3380 ca         1 5DV      -0.075000
     22 CAC         -0.1290    -3.5320     8.3850 ca         1 5DV      -0.139000
     23 CAD          0.2240    -3.5150     7.0400 ca         1 5DV      -0.016200
     24 NAG         -0.4510    -3.8390     5.8860 na         1 5DV      -0.215400
     25 CAH          0.3860    -3.6290     4.8070 cd         1 5DV      -0.099300
     26 CAL          0.0320    -3.8530     3.3980 c          1 5DV       0.509300
     27 OAN          0.8770    -3.7320     2.5320 o          1 5DV      -0.355100
     28 NAM         -1.2280    -4.1960     3.0650 nz         1 5DV      -0.682400
     29 H1          -0.2160     0.9310     0.5100 hc         1 5DV       0.055700
     30 H2          -0.3910    -0.7750     0.6490 hc         1 5DV       0.055700
     31 H3           1.6460     0.7750    -0.7480 hc         1 5DV       0.071700
     32 H4           1.7250    -0.9140    -0.5480 hc         1 5DV       0.071700
     33 H5           1.7860    -2.0840     1.6750 ha         1 5DV       0.139000
     34 H6           2.3160     2.1390     1.5360 ha         1 5DV       0.148000
     35 H7           1.9800     2.6220     4.4690 hc         1 5DV       0.062033
     36 H8           3.5660     3.1530     3.4390 hc         1 5DV       0.062033
     37 H9           3.6640     2.4150     4.9210 hc         1 5DV       0.062033
     38 H10          3.4500     0.4040     4.9010 ha         1 5DV       0.168000
     39 H11          5.7360    -3.9940     5.2710 h1         1 5DV       0.052700
     40 H12          4.4090    -4.6630     6.1420 h1         1 5DV       0.052700
     41 H14          3.4280    -2.6470     7.2390 ha         1 5DV       0.166000
     42 H15          0.9900    -3.1510    10.4020 ha         1 5DV       0.191000
     43 H16         -1.0490    -3.7100     8.9300 ha         1 5DV       0.167000
     44 H17         -1.2980    -4.2630     6.2110 hn         1 5DV       0.326700
     45 H18         -1.9490    -3.7700     3.6140 hn         1 5DV       0.473800
     46 H19         -1.3480    -5.0530     3.5670 hn         1 5DV       0.473800
     47 H21          5.1490    -3.5170     6.9200 h1         1 5DV       0.052700
     48 HAM3        -1.5150    -4.1300     2.1090 hn         1 5DV       0.473800
@<TRIPOS>BOND
     1     1     2 3
     2     2     3 1
     3     3     4 1
     4     4     5 1
     5     5     6 ar
     6     5     7 ar
     7     6    11 ar
     8     7     8 ar
     9     8     9 1
    10     8    10 ar
    11    10    11 ar
    12    11    12 1
    13    12    13 1
    14    12    15 2
    15    12    16 1
    16    13    14 1
    17    16    17 1
    18    16    25 2
    19    17    18 ar
    20    17    23 ar
    21    18    19 ar
    22    19    20 1
    23    19    21 ar
    24    21    22 ar
    25    22    23 ar
    26    23    24 1
    27    24    25 1
    28    25    26 1
    29    26    27 2
    30    26    28 1
    31     3    29 1
    32     3    30 1
    33     4    31 1
    34     4    32 1
    35     6    33 1
    36     7    34 1
    37     9    35 1
    38     9    36 1
    39     9    37 1
    40    10    38 1
    41    14    39 1
    42    14    40 1
    43    18    41 1
    44    21    42 1
    45    22    43 1
    46    24    44 1
    47    28    45 1
    48    28    46 1
    49    14    47 1
    50    48    28 1
@<TRIPOS>SUBSTRUCTURE
     1 5DV         1 TEMP              0 ****  ****    0 ROOT
