@<TRIPOS>MOLECULE
5DV
   48    50     1     0     0
SMALL
bcc


@<TRIPOS>ATOM
      1 NBB         -0.8760    -0.0190    -2.4570 n1         1 5DV      -0.346800
      2 CBA         -0.4920     0.0000    -1.3890 c1         1 5DV       0.174700
      3 CAZ          0.0000     0.0000     0.0000 c3         1 5DV       0.090700
      4 CAY          1.5300     0.0000     0.0000 c3         1 5DV       0.017900
      5 CAT          2.0320     0.0000     1.4200 ca         1 5DV      -0.087300
      6 CAS          2.2630    -1.1970     2.0720 ca         1 5DV      -0.026000
      7 CAU          2.2680     1.1980     2.0710 ca         1 5DV      -0.065000
      8 CAV          2.7280     1.1970     3.3740 ca         1 5DV      -0.132300
      9 CAX          2.9850     2.5030     4.0820 c3         1 5DV       0.052200
     10 CAW          2.9530     0.0000     4.0270 ca         1 5DV      -0.086000
     11 CAR          2.7230    -1.1970     3.3760 ca         1 5DV      -0.068500
     12 PAO          3.0260    -2.7680     4.2310 py         1 5DV       0.772800
     13 OAQ          4.3290    -2.6280     5.1650 os         1 5DV      -0.428200
     14 CBC          4.8880    -3.7250     5.8890 c3         1 5DV       0.305700
     15 OAP          3.2470    -3.8380     3.2330 o          1 5DV      -0.597300
     16 CAI          1.5890    -3.1840     5.2560 cc         1 5DV       0.035200
     17 CAE          1.5170    -3.0980     6.6670 ca         1 5DV      -0.111800
     18 CAF          2.4290    -2.7050     7.6550 ca         1 5DV      -0.056000
     19 CAA          2.0610    -2.7290     8.9690 ca         1 5DV      -0.084600
     20 Cl           3.1940    -2.2410    10.1910 cl         1 5DV       0.029600
     21 CAB          0.7850    -3.1400     9.3380 ca         1 5DV      -0.057000
     22 CAC         -0.1290    -3.5320     8.3850 ca         1 5DV      -0.094000
     23 CAD          0.2240    -3.5150     7.0400 ca         1 5DV      -0.182200
     24 NAG         -0.4510    -3.8390     5.8860 na         1 5DV       0.277600
     25 CAH          0.3860    -3.6290     4.8070 cd         1 5DV      -0.318300
     26 CAL          0.0320    -3.8530     3.3980 c          1 5DV       0.351300
     27 OAN          0.8770    -3.7320     2.5320 o          1 5DV      -0.376100
     28 NAM         -1.2280    -4.1960     3.0650 nz         1 5DV       0.195600
     29 H1          -0.2160     0.9310     0.5100 hc         1 5DV       0.014200
     30 H2          -0.3910    -0.7750     0.6490 hc         1 5DV       0.014200
     31 H3           1.6460     0.7750    -0.7480 hc         1 5DV       0.036200
     32 H4           1.7250    -0.9140    -0.5480 hc         1 5DV       0.036200
     33 H5           1.7860    -2.0840     1.6750 ha         1 5DV       0.112000
     34 H6           2.3160     2.1390     1.5360 ha         1 5DV       0.120000
     35 H7           1.9800     2.6220     4.4690 hc         1 5DV       0.023700
     36 H8           3.5660     3.1530     3.4390 hc         1 5DV       0.023700
     37 H9           3.6640     2.4150     4.9210 hc         1 5DV       0.023700
     38 H10          3.4500     0.4040     4.9010 ha         1 5DV       0.140000
     39 H11          5.7360    -3.9940     5.2710 h1         1 5DV      -0.009633
     40 H12          4.4090    -4.6630     6.1420 h1         1 5DV      -0.009633
     41 H14          3.4280    -2.6470     7.2390 ha         1 5DV       0.147000
     42 H15          0.9900    -3.1510    10.4020 ha         1 5DV       0.149000
     43 H16         -1.0490    -3.7100     8.9300 ha         1 5DV       0.132000
     44 H17         -1.2980    -4.2630     6.2110 hn         1 5DV       0.151700
     45 H18         -1.9490    -3.7700     3.6140 hn         1 5DV       0.239133
     46 H19         -1.3480    -5.0530     3.5670 hn         1 5DV       0.239133
     47 H21          5.1490    -3.5170     6.9200 h1         1 5DV      -0.009633
     48 HAM3        -1.5150    -4.1300     2.1090 hn         1 5DV       0.239133
@<TRIPOS>BOND
     1     1     2 3   
     2     2     3 1   
     3     3     4 1   
     4     3    29 1   
     5     3    30 1   
     6     4     5 1   
     7     4    31 1   
     8     4    32 1   
     9     5     6 ar  
    10     5     7 ar  
    11     6    11 ar  
    12     6    33 1   
    13     7     8 ar  
    14     7    34 1   
    15     8     9 1   
    16     8    10 ar  
    17     9    35 1   
    18     9    36 1   
    19     9    37 1   
    20    10    11 ar  
    21    10    38 1   
    22    11    12 1   
    23    12    13 1   
    24    12    15 2   
    25    12    16 1   
    26    13    14 1   
    27    14    39 1   
    28    14    40 1   
    29    14    47 1   
    30    16    17 1   
    31    16    25 2   
    32    17    18 ar  
    33    17    23 ar  
    34    18    19 ar  
    35    18    41 1   
    36    19    20 1   
    37    19    21 ar  
    38    21    22 ar  
    39    21    42 1   
    40    22    23 ar  
    41    22    43 1   
    42    23    24 1   
    43    24    25 1   
    44    24    44 1   
    45    25    26 1   
    46    26    27 2   
    47    26    28 1   
    48    28    45 1   
    49    28    46 1   
    50    28    48 1   
@<TRIPOS>SUBSTRUCTURE
     1 5DV         1 TEMP              0 ****  ****    0 ROOT
