@<TRIPOS>MOLECULE
5DY
   41    42     1     0     0
SMALL
bcc


@<TRIPOS>ATOM
      1 N01          0.0000     0.0000     0.0000 nz         1 5DY       0.078400
      2 C02          1.4690     0.0000     0.0000 c3         1 5DY      -0.197500
      3 C03          1.9800     0.0000     1.4420 c3         1 5DY       0.081900
      4 C04          1.5810    -1.2880     2.1150 cc         1 5DY      -0.455600
      5 C05          2.2420    -2.4670     2.0480 cd         1 5DY      -0.200300
      6 C06          1.4890    -3.3710     2.8370 cd         1 5DY       0.325800
      7 N07          0.4570    -2.7020     3.3130 nc         1 5DY      -0.613800
      8 N08          0.4950    -1.4830     2.9070 na         1 5DY       0.645300
      9 C09         -0.4490    -0.4990     3.2320 ca         1 5DY      -0.163200
     10 C10         -1.8040    -0.7960     3.1930 ca         1 5DY      -0.109000
     11 C11         -2.7320     0.1750     3.5190 ca         1 5DY      -0.087500
     12 C12         -2.3100     1.4410     3.8850 ca         1 5DY      -0.102300
     13 C13         -3.3250     2.4970     4.2390 c3         1 5DY       0.038900
     14 C14         -3.6160     2.4400     5.7400 c3         1 5DY      -0.062400
     15 C15         -4.6460     3.5120     6.1010 c3         1 5DY       0.209900
     16 F16         -4.9130     3.4600     7.4740 f          1 5DY      -0.235300
     17 C17         -0.9600     1.7390     3.9230 ca         1 5DY      -0.087500
     18 C18         -0.0290     0.7720     3.5990 ca         1 5DY      -0.109000
     19 C19          1.8000    -4.7920     3.0800 c          1 5DY       0.887100
     20 O20          0.9880    -5.5360     3.8560 o          1 5DY      -0.866300
     21 O21          2.7870    -5.2930     2.5800 o          1 5DY      -0.866300
     22 C22          1.9710     1.2310    -0.7100 c          1 5DY       0.961600
     23 O23          3.2250     1.2660    -1.1890 o          1 5DY      -0.836800
     24 O24          1.2450     2.1880    -0.8480 o          1 5DY      -0.836800
     25 H1          -0.3340     0.7520     0.5700 hn         1 5DY       0.212133
     26 H2          -0.3340     0.1170    -0.9360 hn         1 5DY       0.212133
     27 H4           1.8300    -0.8840    -0.5110 hx         1 5DY       0.097700
     28 H5           1.5480     0.8360     1.9780 hc         1 5DY       0.052700
     29 H6           3.0600     0.0890     1.4430 hc         1 5DY       0.052700
     30 H7           3.1560    -2.6760     1.5050 ha         1 5DY       0.152000
     31 H8          -2.1340    -1.7870     2.9070 ha         1 5DY       0.136000
     32 H9          -3.7900    -0.0550     3.4890 ha         1 5DY       0.110500
     33 H10         -4.2390     2.3200     3.6860 hc         1 5DY       0.017200
     34 H11         -2.9330     3.4740     3.9840 hc         1 5DY       0.017200
     35 H12         -2.7020     2.6170     6.2930 hc         1 5DY       0.033700
     36 H13         -4.0080     1.4630     5.9950 hc         1 5DY       0.033700
     37 H14         -5.5610     3.3350     5.5480 h1         1 5DY       0.007200
     38 H15         -4.2540     4.4890     5.8460 h1         1 5DY       0.007200
     39 H16         -0.6330     2.7310     4.2100 ha         1 5DY       0.110500
     40 H17          1.0280     1.0060     3.6300 ha         1 5DY       0.136000
     41 H013        -0.3340    -0.8670     0.3730 hn         1 5DY       0.212133
@<TRIPOS>BOND
     1     1     2 1   
     2     1    25 1   
     3     1    26 1   
     4     1    41 1   
     5     2     3 1   
     6     2    22 1   
     7     2    27 1   
     8     3     4 1   
     9     3    28 1   
    10     3    29 1   
    11     4     5 2   
    12     4     8 1   
    13     5     6 1   
    14     5    30 1   
    15     6     7 2   
    16     6    19 1   
    17     7     8 1   
    18     8     9 1   
    19     9    10 ar  
    20     9    18 ar  
    21    10    11 ar  
    22    10    31 1   
    23    11    12 ar  
    24    11    32 1   
    25    12    13 1   
    26    12    17 ar  
    27    13    14 1   
    28    13    33 1   
    29    13    34 1   
    30    14    15 1   
    31    14    35 1   
    32    14    36 1   
    33    15    16 1   
    34    15    37 1   
    35    15    38 1   
    36    17    18 ar  
    37    17    39 1   
    38    18    40 1   
    39    19    20 1   
    40    19    21 1   
    41    22    23 1   
    42    22    24 1   
@<TRIPOS>SUBSTRUCTURE
     1 5DY         1 TEMP              0 ****  ****    0 ROOT
