@<TRIPOS>MOLECULE
molecule
   41    42     1     0     0
SMALL
bcc


@<TRIPOS>ATOM
      1 N01          0.0000     0.0000     0.0000 nz         1 5DY      -0.788600
      2 C02          1.4690     0.0000     0.0000 c3         1 5DY      -0.009500
      3 C03          1.9800     0.0000     1.4420 c3         1 5DY      -0.008100
      4 C04          1.5810    -1.2880     2.1150 cc         1 5DY      -0.246600
      5 C05          2.2420    -2.4670     2.0480 cd         1 5DY      -0.236300
      6 C06          1.4890    -3.3710     2.8370 cd         1 5DY       0.318800
      7 N07          0.4570    -2.7020     3.3130 nc         1 5DY      -0.488800
      8 N08          0.4950    -1.4830     2.9070 na         1 5DY       0.163300
      9 C09         -0.4490    -0.4990     3.2320 ca         1 5DY       0.017800
     10 C10         -1.8040    -0.7960     3.1930 ca         1 5DY      -0.143500
     11 C11         -2.7320     0.1750     3.5190 ca         1 5DY      -0.116500
     12 C12         -2.3100     1.4410     3.8850 ca         1 5DY      -0.101300
     13 C13         -3.3250     2.4970     4.2390 c3         1 5DY      -0.032100
     14 C14         -3.6160     2.4400     5.7400 c3         1 5DY      -0.112400
     15 C15         -4.6460     3.5120     6.1010 c3         1 5DY       0.160900
     16 F16         -4.9130     3.4600     7.4740 f          1 5DY      -0.252300
     17 C17         -0.9600     1.7390     3.9230 ca         1 5DY      -0.116500
     18 C18         -0.0290     0.7720     3.5990 ca         1 5DY      -0.143500
     19 C19          1.8000    -4.7920     3.0800 c          1 5DY       0.801100
     20 O20          0.9880    -5.5360     3.8560 o          1 5DY      -0.812300
     21 O21          2.7870    -5.2930     2.5800 o          1 5DY      -0.812300
     22 C22          1.9710     1.2310    -0.7100 c          1 5DY       0.869600
     23 O23          3.2250     1.2660    -1.1890 o          1 5DY      -0.792800
     24 O24          1.2450     2.1880    -0.8480 o          1 5DY      -0.792800
     25 H1          -0.3340     0.7520     0.5700 hn         1 5DY       0.439800
     26 H2          -0.3340     0.1170    -0.9360 hn         1 5DY       0.439800
     27 H4           1.8300    -0.8840    -0.5110 hx         1 5DY       0.114700
     28 H5           1.5480     0.8360     1.9780 hc         1 5DY       0.086200
     29 H6           3.0600     0.0890     1.4430 hc         1 5DY       0.086200
     30 H7           3.1560    -2.6760     1.5050 ha         1 5DY       0.178000
     31 H8          -2.1340    -1.7870     2.9070 ha         1 5DY       0.160000
     32 H9          -3.7900    -0.0550     3.4890 ha         1 5DY       0.136000
     33 H10         -4.2390     2.3200     3.6860 hc         1 5DY       0.046700
     34 H11         -2.9330     3.4740     3.9840 hc         1 5DY       0.046700
     35 H12         -2.7020     2.6170     6.2930 hc         1 5DY       0.063700
     36 H13         -4.0080     1.4630     5.9950 hc         1 5DY       0.063700
     37 H14         -5.5610     3.3350     5.5480 h1         1 5DY       0.039200
     38 H15         -4.2540     4.4890     5.8460 h1         1 5DY       0.039200
     39 H16         -0.6330     2.7310     4.2100 ha         1 5DY       0.136000
     40 H17          1.0280     1.0060     3.6300 ha         1 5DY       0.160000
     41 H013        -0.3340    -0.8670     0.3730 hn         1 5DY       0.439800
@<TRIPOS>BOND
     1    13    12 1
     2    13    14 1
     3    11    12 ar
     4    11    10 ar
     5    12    17 ar
     6    14    15 1
     7    16    15 1
     8    10     9 ar
     9    17    18 ar
    10     9    18 ar
    11     9     8 1
    12     1     2 1
    13     3     4 1
    14     3     2 1
    15     8     4 1
    16     8     7 1
    17     4     5 2
    18     2    22 1
    19     7     6 2
    20    23    22 1
    21    22    24 1
    22     5     6 1
    23     6    19 1
    24    19    21 1
    25    19    20 1
    26     1    25 1
    27     1    26 1
    28     2    27 1
    29     3    28 1
    30     3    29 1
    31     5    30 1
    32    10    31 1
    33    11    32 1
    34    13    33 1
    35    13    34 1
    36    14    35 1
    37    14    36 1
    38    15    37 1
    39    15    38 1
    40    17    39 1
    41    18    40 1
    42    41     1 1
@<TRIPOS>SUBSTRUCTURE
     1 5DY         1 TEMP              0 ****  ****    0 ROOT
