@<TRIPOS>MOLECULE
molecule
   32    33     1     0     0
SMALL
bcc


@<TRIPOS>ATOM
      1 C01          0.0000     0.0000     0.0000 c          1 5DZ       0.867600
      2 O02          1.3420     0.0000     0.0000 o          1 5DZ      -0.784800
      3 O03         -0.6040     0.0000     1.0460 o          1 5DZ      -0.784800
      4 C04         -1.6640    -1.0680    -6.8420 c          1 5DZ       0.800100
      5 O05         -2.7200    -1.2020    -7.6680 o          1 5DZ      -0.810800
      6 O06         -0.5710    -0.7850    -7.2950 o          1 5DZ      -0.810800
      7 C08         -4.9690    -1.3660    -2.6070 ca         1 5DZ      -0.110500
      8 C09         -5.9330    -1.6770    -1.6680 ca         1 5DZ      -0.164500
      9 C10         -5.6550    -2.5920    -0.6660 ca         1 5DZ       0.116900
     10 C11         -4.4110    -3.1980    -0.6040 ca         1 5DZ      -0.164500
     11 C12         -3.4460    -2.8900    -1.5410 ca         1 5DZ      -0.110500
     12 C13         -3.7210    -1.9720    -2.5460 ca         1 5DZ       0.002800
     13 N14         -2.1250     0.4670    -1.0800 nz         1 5DZ      -0.797600
     14 C15         -0.7530    -0.0070    -1.3050 c3         1 5DZ       0.051500
     15 C16         -0.7910    -1.4310    -1.8640 c3         1 5DZ      -0.181100
     16 C17         -0.8220    -1.1610    -4.4040 cc         1 5DZ      -0.265300
     17 C18         -1.4360    -1.4180    -3.2270 cd         1 5DZ      -0.208600
     18 N19         -2.7440    -1.6630    -3.5010 na         1 5DZ       0.170300
     19 N20         -2.9530    -1.5700    -4.7660 nd         1 5DZ      -0.490800
     20 C21         -1.8320    -1.2670    -5.3910 cc         1 5DZ       0.324800
     21 H6          -2.4730    -3.3640    -1.4930 ha         1 5DZ       0.166500
     22 H7          -2.1000     1.3420    -0.5940 hn         1 5DZ       0.438467
     23 H8          -2.5850     0.5880    -1.9610 hn         1 5DZ       0.438467
     24 H10         -0.2560     0.6460    -2.0130 hx         1 5DZ       0.091700
     25 H11         -0.1940    -0.6700    -2.3510 hc         1 5DZ       0.139200
     26 H12         -0.0500    -2.1780    -1.6050 hc         1 5DZ       0.139200
     27 H13          0.2460    -1.1800    -4.5830 ha         1 5DZ       0.179000
     28 H3          -5.1860    -0.6500    -3.3900 ha         1 5DZ       0.166500
     29 F07         -6.6000    -2.8940     0.2520 f          1 5DZ      -0.144900
     30 H4          -6.9060    -1.2040    -1.7150 ha         1 5DZ       0.149500
     31 H143        -2.6280    -0.2090    -0.5400 hn         1 5DZ       0.438467
     32 H5          -4.1960    -3.9140     0.1800 ha         1 5DZ       0.149500
@<TRIPOS>BOND
     1    29     9 1
     2     8     9 ar
     3     8     7 ar
     4     9    10 ar
     5     7    12 ar
     6    10    11 ar
     7    12    11 ar
     8    12    18 1
     9    15    17 1
    10    15    14 1
    11    18    17 1
    12    18    19 1
    13    13    14 1
    14    17    16 2
    15    19    20 2
    16    14     1 1
    17     2     1 1
    18     1     3 1
    19    16    20 1
    20    20     4 1
    21     4     6 1
    22     4     5 1
    23     7    28 1
    24     8    30 1
    25    10    32 1
    26    11    21 1
    27    13    22 1
    28    13    23 1
    29    14    24 1
    30    15    25 1
    31    15    26 1
    32    16    27 1
    33    31    13 1
@<TRIPOS>SUBSTRUCTURE
     1 5DZ         1 TEMP              0 ****  ****    0 ROOT
