@<TRIPOS>MOLECULE
5E0
   32    33     1     0     0
SMALL
bcc


@<TRIPOS>ATOM
      1 C10          0.0000     0.0000     0.0000 ca         1 5E0      -0.096500
      2 C13          1.3850    -0.0010     2.3980 ca         1 5E0      -0.099500
      3 C14          2.0810     0.0000     1.2040 ca         1 5E0      -0.096500
      4 N01          1.8270     3.2210    -0.5520 nz         1 5E0       0.037400
      5 C02          3.2620     3.1790    -0.8650 c3         1 5E0      -0.098500
      6 C03          3.8080     1.7820    -0.5620 c3         1 5E0      -0.140100
      7 C04          3.1680     0.7810    -1.4880 cc         1 5E0      -0.400600
      8 C05          3.5620     0.4860    -2.7490 cd         1 5E0      -0.243300
      9 C06          2.6600    -0.5040    -3.2070 cd         1 5E0       0.331800
     10 N07          1.8080    -0.7350    -2.2280 nc         1 5E0      -0.614800
     11 N08          2.0910    -0.0000    -1.2130 na         1 5E0       0.659300
     12 C09          1.3890     0.0000     0.0000 ca         1 5E0      -0.167200
     13 C11         -0.6890     0.0050     1.1970 ca         1 5E0      -0.099500
     14 C12          0.0020     0.0040     2.3940 ca         1 5E0      -0.106000
     15 O16          1.7430    -2.0860    -4.8320 o          1 5E0      -0.866300
     16 O17          3.5130    -0.8490    -5.3520 o          1 5E0      -0.866300
     17 C18          3.9900     4.1950    -0.0240 c          1 5E0       0.953600
     18 O19          5.2050     4.6280    -0.3960 o          1 5E0      -0.830300
     19 O20          3.4790     4.6240     0.9840 o          1 5E0      -0.830300
     20 H1          -0.5420     0.0000    -0.9380 ha         1 5E0       0.133500
     21 H2           1.9240    -0.0020     3.3370 ha         1 5E0       0.106000
     22 H3           3.1640    -0.0020     1.2080 ha         1 5E0       0.133500
     23 H4           1.6790     2.8870     0.3800 hn         1 5E0       0.216800
     24 H5           1.3280     2.6430    -1.1980 hn         1 5E0       0.216800
     25 H7           3.4100     3.4050    -1.9140 hx         1 5E0       0.074700
     26 H8           4.0090     2.2510    -1.5180 hc         1 5E0       0.115200
     27 H9           4.8040     1.6200    -0.1670 hc         1 5E0       0.115200
     28 H10          4.5250     0.7200    -3.1860 ha         1 5E0       0.154000
     29 H11         -1.7720     0.0070     1.1970 ha         1 5E0       0.106000
     30 H12         -0.5410     0.0050     3.3320 ha         1 5E0       0.101000
     31 H013         1.4940     4.1610    -0.6400 hn         1 5E0       0.216800
     32 C15          2.6690    -1.1540    -4.5320 c          1 5E0       0.887100
@<TRIPOS>BOND
     1     1    12 ar  
     2     1    13 ar  
     3     1    20 1   
     4     2     3 ar  
     5     2    14 ar  
     6     2    21 1   
     7     3    12 ar  
     8     3    22 1   
     9     4     5 1   
    10     4    23 1   
    11     4    24 1   
    12     4    31 1   
    13     5     6 1   
    14     5    17 1   
    15     5    25 1   
    16     6     7 1   
    17     6    26 1   
    18     6    27 1   
    19     7     8 2   
    20     7    11 1   
    21     8     9 1   
    22     8    28 1   
    23     9    10 2   
    24     9    32 1   
    25    10    11 1   
    26    11    12 1   
    27    13    14 ar  
    28    13    29 1   
    29    14    30 1   
    30    15    32 1   
    31    16    32 1   
    32    17    18 1   
    33    17    19 1   
@<TRIPOS>SUBSTRUCTURE
     1 5E0         1 TEMP              0 ****  ****    0 ROOT
