@<TRIPOS>MOLECULE
molecule
   29    31     1     0     0
SMALL
bcc


@<TRIPOS>ATOM
      1 Br           0.0000     0.0000     0.0000 br         1 5E1      -0.128100
      2 C8           1.8910     0.0000     0.0000 ca         1 5E1      -0.028900
      3 C7           2.5830     0.0000     1.1980 ca         1 5E1      -0.115000
      4 C6           3.9660    -0.0000     1.2050 ca         1 5E1      -0.139000
      5 C5           4.6650    -0.0000     0.0160 ca         1 5E1      -0.101000
      6 C9           2.5800    -0.0060    -1.1980 ca         1 5E1      -0.073000
      7 C4           3.9740    -0.0000    -1.1950 cp         1 5E1      -0.122500
      8 C3           4.7200    -0.0060    -2.4770 cp         1 5E1       0.469800
      9 C2           6.1230    -0.0010    -2.4450 ca         1 5E1      -0.237300
     10 N            4.0430    -0.0230    -3.6060 nb         1 5E1      -0.721000
     11 C10          4.6430    -0.0350    -4.7970 ca         1 5E1       0.411600
     12 C15          6.0580    -0.0310    -4.8790 ca         1 5E1      -0.142300
     13 C1           6.8330    -0.0070    -3.6370 ca         1 5E1      -0.039600
     14 C            8.3110    -0.0010    -3.6530 c          1 5E1       0.886200
     15 O1           8.9950     0.1260    -2.5000 o          1 5E1      -0.822800
     16 O            8.9070    -0.1090    -4.7050 o          1 5E1      -0.822800
     17 C14          6.6830    -0.0440    -6.1300 ca         1 5E1      -0.074000
     18 C13          5.9230    -0.0620    -7.2630 ca         1 5E1      -0.177000
     19 C12          4.5320    -0.0660    -7.1880 ca         1 5E1      -0.128000
     20 C11          3.8920    -0.0580    -5.9880 ca         1 5E1      -0.194300
     21 H1           2.0390     0.0000     2.1350 ha         1 5E1       0.129000
     22 H2           4.5020    -0.0000     2.1460 ha         1 5E1       0.129000
     23 H3           5.7480     0.0020     0.0230 ha         1 5E1       0.157000
     24 H4           2.0390    -0.0060    -2.1360 ha         1 5E1       0.167000
     25 H5           6.6440    -0.1350    -1.5040 ha         1 5E1       0.161000
     26 H7           7.7640    -0.0420    -6.1990 ha         1 5E1       0.206000
     27 H8           6.4080    -0.0680    -8.2320 ha         1 5E1       0.115000
     28 H9           3.9510    -0.0800    -8.1020 ha         1 5E1       0.108000
     29 H10          2.8100    -0.0610    -5.9490 ha         1 5E1       0.126000
@<TRIPOS>BOND
     1    19    18 ar  
     2    19    20 ar  
     3    18    17 ar  
     4    20    11 ar  
     5    17    12 ar  
     6    11    12 ar  
     7    11    10 ar  
     8    12    13 ar  
     9    10     8 ar  
    10    13    14 1   
    11    13     9 ar  
    12    16    14 1   
    13    14    15 1   
    14     8     9 ar  
    15     8     7 1   
    16     6     7 ar  
    17     6     2 ar  
    18     7     5 ar  
    19     1     2 1   
    20     2     3 ar  
    21     5     4 ar  
    22     3     4 ar  
    23     3    21 1   
    24     4    22 1   
    25     5    23 1   
    26     6    24 1   
    27     9    25 1   
    28    17    26 1   
    29    18    27 1   
    30    19    28 1   
    31    20    29 1   
@<TRIPOS>SUBSTRUCTURE
     1 5E1         1 TEMP              0 ****  ****    0 ROOT
