@<TRIPOS>MOLECULE
molecule
   29    31     1     0     0
SMALL
bcc


@<TRIPOS>ATOM
      1 C1           0.0000     0.0000     0.0000 ca         1 5E2      -0.034600
      2 C6           5.6270    -0.0130    -0.0120 ca         1 5E2      -0.139000
      3 C7           6.3290    -0.0070     1.1800 ca         1 5E2      -0.113000
      4 C9           4.2710    -0.0000     2.4070 ca         1 5E2      -0.072000
      5 C5           4.2480    -0.0070    -0.0050 ca         1 5E2      -0.099000
      6 C4           3.5600    -0.0000     1.2080 cp         1 5E2      -0.125500
      7 C3           2.0770     0.0000     1.2220 cp         1 5E2       0.476800
      8 C12         -1.8760     0.0180     3.7930 ca         1 5E2      -0.123000
      9 C2           1.3880     0.0000     0.0000 ca         1 5E2      -0.235300
     10 C13         -2.6510     0.0170     2.6350 ca         1 5E2      -0.011600
     11 C11         -0.5160     0.0120     3.7290 ca         1 5E2      -0.185300
     12 C14         -2.0660     0.0120     1.4030 ca         1 5E2      -0.063000
     13 C15         -0.6710     0.0060     1.3000 ca         1 5E2      -0.141300
     14 C           -0.7690    -0.0010    -1.2630 c          1 5E2       0.884200
     15 O1          -0.1270     0.1150    -2.4410 o          1 5E2      -0.818300
     16 O           -1.9790    -0.1050    -1.2360 o          1 5E2      -0.818300
     17 C10          0.1230     0.0060     2.4750 ca         1 5E2       0.412600
     18 N            1.4530    -0.0000     2.3810 nb         1 5E2      -0.721000
     19 C8           5.6520    -0.0010     2.3870 ca         1 5E2      -0.029900
     20 Br           6.6190    -0.0010     4.0120 br         1 5E2      -0.126100
     21 H1           6.1620    -0.0220    -0.9540 ha         1 5E2       0.130000
     22 H2           7.4120    -0.0070     1.1690 ha         1 5E2       0.130000
     23 H3           3.7430     0.0680     3.3500 ha         1 5E2       0.167000
     24 H4           3.7010     0.0490    -0.9380 ha         1 5E2       0.158000
     25 H5          -2.3630     0.0230     4.7610 ha         1 5E2       0.124000
     26 H6           1.9300    -0.1450    -0.9270 ha         1 5E2       0.164000
     27 H7           0.0720     0.0120     4.6390 ha         1 5E2       0.134000
     28 H8          -2.6780     0.0110     0.5090 ha         1 5E2       0.220000
     29 Cl          -4.3830     0.0250     2.7630 cl         1 5E2      -0.144400
@<TRIPOS>BOND
     1    29    10 1
     2     8    10 ar
     3     8    11 ar
     4    10    12 ar
     5    11    17 ar
     6    12    13 ar
     7    17    13 ar
     8    17    18 ar
     9    13     1 ar
    10    18     7 ar
    11    16    14 1
    12     1    14 1
    13     1     9 ar
    14    14    15 1
    15     7     9 ar
    16     7     6 1
    17     4     6 ar
    18     4    19 ar
    19     6     5 ar
    20    20    19 1
    21    19     3 ar
    22     5     2 ar
    23     3     2 ar
    24     2    21 1
    25     3    22 1
    26     4    23 1
    27     5    24 1
    28     8    25 1
    29     9    26 1
    30    11    27 1
    31    12    28 1
@<TRIPOS>SUBSTRUCTURE
     1 5E2         1 TEMP              0 ****  ****    0 ROOT
