@<TRIPOS>MOLECULE
5E4
   26    27     1     0     0
SMALL
bcc


@<TRIPOS>ATOM
      1 OAD          0.0000     0.0000     0.0000 o          1 5E4      -0.877300
      2 CAP          1.3480     0.0000     0.0000 c          1 5E4       0.967200
      3 OAQ          1.9550     0.0000     1.0530 o          1 5E4      -0.877300
      4 CAI          2.0840     0.0010    -1.2750 ca         1 5E4      -0.091600
      5 CAH          1.3950     0.1180    -2.4860 ca         1 5E4      -0.063000
      6 CAA          2.0910     0.1180    -3.6750 ca         1 5E4      -0.134000
      7 CAB          3.4710     0.0030    -3.6790 ca         1 5E4      -0.131000
      8 CAC          4.1670    -0.1120    -2.4930 ca         1 5E4      -0.136000
      9 CAJ          3.4850    -0.1090    -1.2830 ca         1 5E4      -0.007400
     10 NAK          4.1820    -0.2250    -0.0880 nu         1 5E4      -0.191000
     11 CAL          4.2730    -1.4650     0.5510 ca         1 5E4       0.116600
     12 CAM          4.9350    -1.5750     1.7670 ca         1 5E4      -0.173000
     13 CAN          5.0220    -2.8010     2.3960 ca         1 5E4       0.110100
     14 Br           5.9210    -2.9530     4.0520 br         1 5E4      -0.206100
     15 CAG          4.4510    -3.9210     1.8140 ca         1 5E4      -0.184000
     16 CAF          3.7930    -3.8140     0.6030 ca         1 5E4      -0.050000
     17 CAE          3.6970    -2.5890    -0.0280 ca         1 5E4      -0.170000
     18 HAH          0.3150     0.2080    -2.4890 ha         1 5E4       0.132000
     19 HAA          1.5550     0.2080    -4.6120 ha         1 5E4       0.085000
     20 HAB          4.0080     0.0020    -4.6210 ha         1 5E4       0.083000
     21 HAC          5.2470    -0.1990    -2.5050 ha         1 5E4       0.092000
     22 HAK          4.6480     0.5720     0.2990 hn         1 5E4       0.276800
     23 HAM          5.4220    -0.7090     2.1990 ha         1 5E4       0.113000
     24 HAG          4.5220    -4.8830     2.3080 ha         1 5E4       0.103000
     25 HAF          3.3460    -4.6910     0.1520 ha         1 5E4       0.089000
     26 HAE          3.1810    -2.5070    -0.9770 ha         1 5E4       0.125000
@<TRIPOS>BOND
     1     1     2 1   
     2     2     3 1   
     3     2     4 1   
     4     4     5 ar  
     5     4     9 ar  
     6     5     6 ar  
     7     5    18 1   
     8     6     7 ar  
     9     6    19 1   
    10     7     8 ar  
    11     7    20 1   
    12     8     9 ar  
    13     8    21 1   
    14     9    10 1   
    15    10    11 1   
    16    10    22 1   
    17    11    12 ar  
    18    11    17 ar  
    19    12    13 ar  
    20    12    23 1   
    21    13    14 1   
    22    13    15 ar  
    23    15    16 ar  
    24    15    24 1   
    25    16    17 ar  
    26    16    25 1   
    27    17    26 1   
@<TRIPOS>SUBSTRUCTURE
     1 5E4         1 TEMP              0 ****  ****    0 ROOT
