@<TRIPOS>MOLECULE
molecule
   26    27     1     0     0
SMALL
bcc


@<TRIPOS>ATOM
      1 OAD          0.0000     0.0000     0.0000 o          1 5E4      -0.827300
      2 CAP          1.3480     0.0000     0.0000 c          1 5E4       0.877200
      3 OAQ          1.9550     0.0000     1.0530 o          1 5E4      -0.827300
      4 CAI          2.0840     0.0010    -1.2750 ca         1 5E4      -0.100600
      5 CAH          1.3950     0.1180    -2.4860 ca         1 5E4      -0.092000
      6 CAA          2.0910     0.1180    -3.6750 ca         1 5E4      -0.160000
      7 CAB          3.4710     0.0030    -3.6790 ca         1 5E4      -0.153000
      8 CAC          4.1670    -0.1120    -2.4930 ca         1 5E4      -0.164000
      9 CAJ          3.4850    -0.1090    -1.2830 ca         1 5E4       0.141600
     10 NAK          4.1820    -0.2250    -0.0880 nu         1 5E4      -0.658000
     11 CAL          4.2730    -1.4650     0.5510 ca         1 5E4       0.262600
     12 CAM          4.9350    -1.5750     1.7670 ca         1 5E4      -0.179000
     13 CAN          5.0220    -2.8010     2.3960 ca         1 5E4       0.030100
     14 Br           5.9210    -2.9530     4.0520 br         1 5E4      -0.149100
     15 CAG          4.4510    -3.9210     1.8140 ca         1 5E4      -0.185000
     16 CAF          3.7930    -3.8140     0.6030 ca         1 5E4      -0.089000
     17 CAE          3.6970    -2.5890    -0.0280 ca         1 5E4      -0.174000
     18 HAH          0.3150     0.2080    -2.4890 ha         1 5E4       0.158000
     19 HAA          1.5550     0.2080    -4.6120 ha         1 5E4       0.107000
     20 HAB          4.0080     0.0020    -4.6210 ha         1 5E4       0.105000
     21 HAC          5.2470    -0.1990    -2.5050 ha         1 5E4       0.114000
     22 HAK          4.6480     0.5720     0.2990 hn         1 5E4       0.442800
     23 HAM          5.4220    -0.7090     2.1990 ha         1 5E4       0.132000
     24 HAG          4.5220    -4.8830     2.3080 ha         1 5E4       0.121000
     25 HAF          3.3460    -4.6910     0.1520 ha         1 5E4       0.120000
     26 HAE          3.1810    -2.5070    -0.9770 ha         1 5E4       0.147000
@<TRIPOS>BOND
     1     7     6 ar
     2     7     8 ar
     3    16    15 ar
     4    16    17 ar
     5    15    13 ar
     6     6     5 ar
     7     8     9 ar
     8    17    11 ar
     9    13    14 1
    10    13    12 ar
    11     5     4 ar
    12    11    12 ar
    13    11    10 1
    14     9     4 ar
    15     9    10 1
    16     4     2 1
    17     2     3 1
    18     2     1 1
    19     5    18 1
    20     6    19 1
    21     7    20 1
    22     8    21 1
    23    10    22 1
    24    12    23 1
    25    15    24 1
    26    16    25 1
    27    17    26 1
@<TRIPOS>SUBSTRUCTURE
     1 5E4         1 TEMP              0 ****  ****    0 ROOT
