@<TRIPOS>MOLECULE
molecule
   26    28     1     0     0
SMALL
bcc


@<TRIPOS>ATOM
      1 C7           0.0000     0.0000     0.0000 ca         1 5E5      -0.157300
      2 C2           2.3990     0.0010    -0.9640 cc         1 5E5      -0.058300
      3 C10          1.3030    -0.0000     2.4700 ca         1 5E5       0.466200
      4 N3           3.5840     0.0010    -0.3360 na         1 5E5       0.031800
      5 C6           1.4110     0.0000     0.0000 ca         1 5E5      -0.180000
      6 C1           2.1840     0.0010    -2.4550 c3         1 5E5      -0.033900
      7 N4           3.3920     0.0000     1.0510 nc         1 5E5      -0.255400
      8 C5           2.0980     0.0000     1.3050 ca         1 5E5      -0.161300
      9 C8          -0.6560    -0.0010     1.2120 cp         1 5E5       0.426800
     10 N9          -0.0010    -0.0010     2.3770 nb         1 5E5      -0.667000
     11 C11         -2.1400    -0.0010     1.2250 cp         1 5E5      -0.252800
     12 C12         -2.8400     0.1090     2.4300 ca         1 5E5      -0.063000
     13 C13         -4.2240     0.1050     2.3870 ca         1 5E5      -0.258300
     14 C14         -4.8620    -0.0070     1.1660 ca         1 5E5       0.415200
     15 N15         -4.1750    -0.1100     0.0440 nb         1 5E5      -0.691000
     16 C16         -2.8580    -0.1040     0.0340 ca         1 5E5       0.419200
     17 H1          -0.5540     0.0000    -0.9310 ha         1 5E5       0.138000
     18 H2           1.7750    -0.0000     3.4460 h4         1 5E5       0.035100
     19 H3           4.4750     0.0020    -0.7920 hn         1 5E5       0.333700
     20 H4           1.6240     0.8840    -2.7390 hc         1 5E5       0.057367
     21 H5           1.6300    -0.8850    -2.7400 hc         1 5E5       0.057367
     22 H6           3.1430     0.0050    -2.9580 hc         1 5E5       0.057367
     23 H7          -2.3130     0.1960     3.3720 ha         1 5E5       0.160000
     24 H8          -4.8000     0.1880     3.3000 ha         1 5E5       0.138000
     25 H9          -5.9450    -0.0140     1.1290 h4         1 5E5       0.021100
     26 H10         -2.3280    -0.1910    -0.9070 h4         1 5E5       0.020100
@<TRIPOS>BOND
     1    13    12 ar  
     2    13    14 ar  
     3     6     2 1   
     4    12    11 ar  
     5    14    15 ar  
     6     1     5 ar  
     7     1     9 ar  
     8     2     5 2   
     9     2     4 1   
    10    11     9 1   
    11    11    16 ar  
    12     5     8 ar  
    13    15    16 ar  
    14     9    10 ar  
    15     4     7 1   
    16     8     7 2   
    17     8     3 ar  
    18    10     3 ar  
    19     1    17 1   
    20     3    18 1   
    21     4    19 1   
    22     6    20 1   
    23     6    21 1   
    24     6    22 1   
    25    12    23 1   
    26    13    24 1   
    27    14    25 1   
    28    16    26 1   
@<TRIPOS>SUBSTRUCTURE
     1 5E5         1 TEMP              0 ****  ****    0 ROOT
