@<TRIPOS>MOLECULE
5E5
   26    28     1     0     0
SMALL
bcc


@<TRIPOS>ATOM
      1 C7         -0.0440    0.0430   -0.0070 ca        1 5E5     -0.169300
      2 C2          2.3800    0.0770   -1.0160 cc        1 5E5     -0.100300
      3 C10         1.3040   -0.4440    2.4100 ca        1 5E5      0.464200
      4 N3          3.5800   -0.1120   -0.3240 na        1 5E5      0.052800
      5 C6          1.3630   -0.0330   -0.0350 ca        1 5E5     -0.117000
      6 C1          2.2750    0.3310   -2.4590 c3        1 5E5     -0.037900
      7 N4          3.4360   -0.3270    0.9770 nc        1 5E5     -0.246400
      8 C5          2.0860   -0.2890    1.2140 ca        1 5E5     -0.203300
      9 C8         -0.6830   -0.1320    1.2130 cp        1 5E5      0.426800
     10 N9         -0.0070   -0.3680    2.4090 nb        1 5E5     -0.657000
     11 C11        -2.1490   -0.0670    1.2730 cp        1 5E5     -0.246800
     12 C12        -2.8230    0.5070    2.3610 ca        1 5E5     -0.061000
     13 C13        -4.2170    0.5510    2.3450 ca        1 5E5     -0.251300
     14 C14        -4.8980    0.0130    1.2390 ca        1 5E5      0.394200
     15 N15        -4.2720   -0.5520    0.1880 nb        1 5E5     -0.668000
     16 C16        -2.9280   -0.5910    0.2140 ca        1 5E5      0.400200
     17 H1         -0.6060    0.2440   -0.9290 ha        1 5E5      0.145000
     18 H2          1.8020   -0.6360    3.3780 h4        1 5E5      0.035100
     19 H3          4.4920   -0.0960   -0.7250 hn        1 5E5      0.324700
     20 H4          2.6940   -0.5230   -3.0490 hc        1 5E5      0.058700
     21 H5          2.8250    1.2630   -2.7450 hc        1 5E5      0.058700
     22 H6          1.1970    0.4560   -2.7320 hc        1 5E5      0.058700
     23 H7         -2.2610    0.9150    3.2150 ha        1 5E5      0.155000
     24 H8         -4.7760    0.9950    3.1790 ha        1 5E5      0.144000
     25 H9         -6.0010    0.0290    1.1880 h4        1 5E5      0.021100
     26 H10        -2.4450   -1.0750   -0.6540 h4        1 5E5      0.021100
@<TRIPOS>BOND
     1    1    5 ar  
     2    1    9 ar  
     3    1   17 1   
     4    2    4 1   
     5    2    5 2   
     6    2    6 1   
     7    3    8 ar  
     8    3   10 ar  
     9    3   18 1   
    10    4    7 1   
    11    4   19 1   
    12    5    8 ar  
    13    6   20 1   
    14    6   21 1   
    15    6   22 1   
    16    7    8 2   
    17    9   10 ar  
    18    9   11 1   
    19   11   12 ar  
    20   11   16 ar  
    21   12   13 ar  
    22   12   23 1   
    23   13   14 ar  
    24   13   24 1   
    25   14   15 ar  
    26   14   25 1   
    27   15   16 ar  
    28   16   26 1   
@<TRIPOS>SUBSTRUCTURE
     1 5E5         1 TEMP              0 ****  ****    0 ROOT
