@<TRIPOS>MOLECULE
5E6
   53    57     1     0     0
SMALL
bcc


@<TRIPOS>ATOM
      1 C9           0.0000     0.0000     0.0000 c3         1 5E6      -0.056400
      2 C2          -2.0770     3.9620    -3.2010 ca         1 5E6      -0.226300
      3 C10          1.5300     0.0000     0.0000 c3         1 5E6      -0.015400
      4 C6          -1.8840     2.3220    -1.4840 ca         1 5E6      -0.302300
      5 C1          -2.5710     2.8290    -2.5740 ca         1 5E6      -0.012000
      6 C3          -0.9080     4.5490    -2.7230 ca         1 5E6       0.435000
      7 N4          -0.2710     4.0330    -1.6780 nb         1 5E6      -0.630000
      8 C5          -0.7190     2.9530    -1.0600 ca         1 5E6       0.507200
      9 N7          -0.0210     2.4460     0.0310 nu         1 5E6      -0.550900
     10 C8          -0.5090     1.2500     0.7220 c3         1 5E6       0.155500
     11 C11          2.0410     0.0000     1.4420 c3         1 5E6      -0.028400
     12 C12          1.5310     1.2490     2.1630 c3         1 5E6      -0.091500
     13 C13          0.0010     1.2500     2.1640 c3         1 5E6      -0.037400
     14 N14          2.0210     1.2500     3.5490 nz         1 5E6       0.077400
     15 C15         -0.3710     5.7600    -3.3850 cc         1 5E6       0.316900
     16 C16          0.4850     6.7760    -2.7710 ca         1 5E6      -0.205900
     17 C17          1.0420     6.9610    -1.5030 ca         1 5E6      -0.123300
     18 C18          1.8290     8.0800    -1.2820 cp         1 5E6       0.385800
     19 N19          2.0530     8.9630    -2.2520 nb         1 5E6      -0.530000
     20 C20          1.5490     8.8290    -3.4580 ca         1 5E6       0.408200
     21 C21          0.7470     7.7340    -3.7710 ca         1 5E6      -0.315500
     22 N22          0.0920     7.3180    -4.8990 na         1 5E6       0.452900
     23 N24         -0.5710     6.1150    -4.6340 nd         1 5E6      -0.603100
     24 C25          2.4300     8.2970     0.0570 cp         1 5E6      -0.248800
     25 C26          3.2270     9.4190     0.3040 ca         1 5E6      -0.034000
     26 C27          3.7650     9.5760     1.5700 ca         1 5E6      -0.213300
     27 C28          3.5000     8.6280     2.5410 ca         1 5E6       0.403200
     28 N29          2.7440     7.5790     2.2780 nb         1 5E6      -0.611000
     29 C30          2.2050     7.3900     1.0900 ca         1 5E6       0.387200
     30 H1          -0.3600     0.0020    -1.0220 hc         1 5E6       0.043700
     31 H2          -0.3600    -0.8840     0.5130 hc         1 5E6       0.043700
     32 H4           1.8900     0.8860    -0.5090 hc         1 5E6       0.043200
     33 H5           1.8900    -0.8860    -0.5090 hc         1 5E6       0.043200
     34 H7          -3.4800     2.3550    -2.9250 ha         1 5E6       0.115000
     35 H8           0.7910     2.9220     0.3700 hn         1 5E6       0.288800
     36 H9          -1.5930     1.2460     0.7240 h1         1 5E6       0.065700
     37 H10          1.6770    -0.8840     1.9520 hc         1 5E6       0.033700
     38 H11          3.1240     0.0030     1.4410 hc         1 5E6       0.033700
     39 H12          1.8900     2.1320     1.6490 hx         1 5E6       0.101700
     40 H13         -0.3590     0.3640     2.6730 hc         1 5E6       0.040200
     41 H14         -0.3580     2.1370     2.6720 hc         1 5E6       0.040200
     42 H15          1.6850     2.0660     4.0210 hn         1 5E6       0.225133
     43 H16          1.6890     0.4310     4.0200 hn         1 5E6       0.225133
     44 H18          0.8630     6.2450    -0.7100 ha         1 5E6       0.125000
     45 H19          1.7590     9.5740    -4.2150 h4         1 5E6      -0.013900
     46 H23          0.0930     7.7960    -5.7790 hn         1 5E6       0.160700
     47 H20          3.4190    10.1470    -0.4750 ha         1 5E6       0.134000
     48 H21          4.3880    10.4330     1.7980 ha         1 5E6       0.120000
     49 H22          3.9220     8.7460     3.5310 h4         1 5E6      -0.020900
     50 H24          1.5900     6.5160     0.9130 h4         1 5E6      -0.025900
     51 H3          -2.5920     4.3850    -4.0550 ha         1 5E6       0.139000
     52 H143         3.0220     1.2510     3.5490 hn         1 5E6       0.225133
     53 H6          -2.2460     1.4380    -0.9730 ha         1 5E6       0.120000
@<TRIPOS>BOND
     1     1     3 1   
     2     1    10 1   
     3     1    30 1   
     4     1    31 1   
     5     2     5 ar  
     6     2     6 ar  
     7     2    51 1   
     8     3    11 1   
     9     3    32 1   
    10     3    33 1   
    11     4     5 ar  
    12     4     8 ar  
    13     4    53 1   
    14     5    34 1   
    15     6     7 ar  
    16     6    15 1   
    17     7     8 ar  
    18     8     9 1   
    19     9    10 1   
    20     9    35 1   
    21    10    13 1   
    22    10    36 1   
    23    11    12 1   
    24    11    37 1   
    25    11    38 1   
    26    12    13 1   
    27    12    14 1   
    28    12    39 1   
    29    13    40 1   
    30    13    41 1   
    31    14    42 1   
    32    14    43 1   
    33    14    52 1   
    34    15    16 1   
    35    15    23 2   
    36    16    17 ar  
    37    16    21 ar  
    38    17    18 ar  
    39    17    44 1   
    40    18    19 ar  
    41    18    24 1   
    42    19    20 ar  
    43    20    21 ar  
    44    20    45 1   
    45    21    22 1   
    46    22    23 1   
    47    22    46 1   
    48    24    25 ar  
    49    24    29 ar  
    50    25    26 ar  
    51    25    47 1   
    52    26    27 ar  
    53    26    48 1   
    54    27    28 ar  
    55    27    49 1   
    56    28    29 ar  
    57    29    50 1   
@<TRIPOS>SUBSTRUCTURE
     1 5E6         1 TEMP              0 ****  ****    0 ROOT
