@<TRIPOS>MOLECULE
molecule
   53    57     1     0     0
SMALL
bcc


@<TRIPOS>ATOM
      1 C9           0.0000     0.0000     0.0000 c3         1 5E6      -0.110400
      2 C2          -2.0770     3.9620    -3.2010 ca         1 5E6      -0.256300
      3 C10          1.5300     0.0000     0.0000 c3         1 5E6      -0.070400
      4 C6          -1.8840     2.3220    -1.4840 ca         1 5E6      -0.315300
      5 C1          -2.5710     2.8290    -2.5740 ca         1 5E6      -0.047000
      6 C3          -0.9080     4.5490    -2.7230 ca         1 5E6       0.486000
      7 N4          -0.2710     4.0330    -1.6780 nb         1 5E6      -0.752000
      8 C5          -0.7190     2.9530    -1.0600 ca         1 5E6       0.691200
      9 N7          -0.0210     2.4460     0.0310 nu         1 5E6      -0.939900
     10 C8          -0.5090     1.2500     0.7220 c3         1 5E6       0.261500
     11 C11          2.0410     0.0000     1.4420 c3         1 5E6      -0.103400
     12 C12          1.5310     1.2490     2.1630 c3         1 5E6       0.096500
     13 C13          0.0010     1.2500     2.1640 c3         1 5E6      -0.113400
     14 N14          2.0210     1.2500     3.5490 nz         1 5E6      -0.810600
     15 C15         -0.3710     5.7600    -3.3850 cc         1 5E6       0.301900
     16 C16          0.4850     6.7760    -2.7710 ca         1 5E6      -0.192900
     17 C17          1.0420     6.9610    -1.5030 ca         1 5E6      -0.156300
     18 C18          1.8290     8.0800    -1.2820 cp         1 5E6       0.428800
     19 N19          2.0530     8.9630    -2.2520 nb         1 5E6      -0.649000
     20 C20          1.5490     8.8290    -3.4580 ca         1 5E6       0.419200
     21 C21          0.7470     7.7340    -3.7710 ca         1 5E6      -0.150500
     22 N22          0.0920     7.3180    -4.8990 na         1 5E6      -0.029100
     23 N24         -0.5710     6.1150    -4.6340 nd         1 5E6      -0.465100
     24 C25          2.4300     8.2970     0.0570 cp         1 5E6      -0.248800
     25 C26          3.2270     9.4190     0.3040 ca         1 5E6      -0.055000
     26 C27          3.7650     9.5760     1.5700 ca         1 5E6      -0.248300
     27 C28          3.5000     8.6280     2.5410 ca         1 5E6       0.417200
     28 N29          2.7440     7.5790     2.2780 nb         1 5E6      -0.714000
     29 C30          2.2050     7.3900     1.0900 ca         1 5E6       0.411200
     30 H1          -0.3600     0.0020    -1.0220 hc         1 5E6       0.072700
     31 H2          -0.3600    -0.8840     0.5130 hc         1 5E6       0.072700
     32 H4           1.8900     0.8860    -0.5090 hc         1 5E6       0.077200
     33 H5           1.8900    -0.8860    -0.5090 hc         1 5E6       0.077200
     34 H7          -3.4800     2.3550    -2.9250 ha         1 5E6       0.152000
     35 H8           0.7910     2.9220     0.3700 hn         1 5E6       0.434800
     36 H9          -1.5930     1.2460     0.7240 h1         1 5E6       0.091700
     37 H10          1.6770    -0.8840     1.9520 hc         1 5E6       0.063700
     38 H11          3.1240     0.0030     1.4410 hc         1 5E6       0.063700
     39 H12          1.8900     2.1320     1.6490 hx         1 5E6       0.118700
     40 H13         -0.3590     0.3640     2.6730 hc         1 5E6       0.072700
     41 H14         -0.3580     2.1370     2.6720 hc         1 5E6       0.072700
     42 H15          1.6850     2.0660     4.0210 hn         1 5E6       0.455467
     43 H16          1.6890     0.4310     4.0200 hn         1 5E6       0.455467
     44 H18          0.8630     6.2450    -0.7100 ha         1 5E6       0.149000
     45 H19          1.7590     9.5740    -4.2150 h4         1 5E6       0.032100
     46 H23          0.0930     7.7960    -5.7790 hn         1 5E6       0.345700
     47 H20          3.4190    10.1470    -0.4750 ha         1 5E6       0.168000
     48 H21          4.3880    10.4330     1.7980 ha         1 5E6       0.148000
     49 H22          3.9220     8.7460     3.5310 h4         1 5E6       0.023100
     50 H24          1.5900     6.5160     0.9130 h4         1 5E6       0.012100
     51 H3          -2.5920     4.3850    -4.0550 ha         1 5E6       0.165000
     52 H143         3.0220     1.2510     3.5490 hn         1 5E6       0.455467
     53 H6          -2.2460     1.4380    -0.9730 ha         1 5E6       0.134000
@<TRIPOS>BOND
     1    20    19 ar  
     2    20    21 ar  
     3    22    21 1   
     4    22    23 1   
     5    19    18 ar  
     6    21    16 ar  
     7    29    28 ar  
     8    29    24 ar  
     9    23    15 2   
    10    18    24 1   
    11    18    17 ar  
    12    28    27 ar  
    13    16    15 1   
    14    16    17 ar  
    15    24    25 ar  
    16    15     6 1   
    17    27    26 ar  
    18    25    26 ar  
    19     6     2 ar  
    20     6     7 ar  
    21     2     5 ar  
    22     7     8 ar  
    23     5     4 ar  
    24     8     4 ar  
    25     8     9 1   
    26    10     1 1   
    27    10     9 1   
    28    10    13 1   
    29     1     3 1   
    30    13    12 1   
    31     3    11 1   
    32    12    11 1   
    33    12    14 1   
    34     1    30 1   
    35     1    31 1   
    36     2    51 1   
    37     3    32 1   
    38     3    33 1   
    39     4    53 1   
    40     5    34 1   
    41     9    35 1   
    42    10    36 1   
    43    11    37 1   
    44    11    38 1   
    45    12    39 1   
    46    13    40 1   
    47    13    41 1   
    48    14    42 1   
    49    14    43 1   
    50    17    44 1   
    51    20    45 1   
    52    22    46 1   
    53    25    47 1   
    54    26    48 1   
    55    27    49 1   
    56    29    50 1   
    57    52    14 1   
@<TRIPOS>SUBSTRUCTURE
     1 5E6         1 TEMP              0 ****  ****    0 ROOT
