@<TRIPOS>MOLECULE
molecule
   55    56     1     0     0
SMALL
bcc


@<TRIPOS>ATOM
      1 O1           0.0000     0.0000     0.0000 o          1 5E8      -0.616500
      2 O2          -1.6300    -3.2350     3.2630 os         1 5E8      -0.425900
      3 C3          -2.9690     3.9180     3.5880 c3         1 5E8      -0.018100
      4 C5          -4.5720     4.5950     5.3860 ca         1 5E8      -0.125500
      5 C7          -4.7240     6.8650     6.1340 ca         1 5E8      -0.131000
      6 C8          -3.7370     7.2260     5.2360 ca         1 5E8      -0.127500
      7 C12          2.0790     0.0000     1.2400 c3         1 5E8      -0.158700
      8 C9          -3.1750     6.2740     4.4050 ca         1 5E8      -0.125500
      9 C13          1.2130     0.0000     0.0000 c          1 5E8       0.696500
     10 C14          0.9320    -0.7310     3.9060 c2         1 5E8      -0.247200
     11 C15          0.3180    -1.9110     3.9040 ce         1 5E8      -0.181200
     12 C16         -1.0580    -2.0210     3.4000 c          1 5E8       0.697300
     13 C17         -1.2010     2.1840     3.4410 c          1 5E8       0.661100
     14 C18         -2.9920    -3.2680     2.7600 c3         1 5E8       0.149400
     15 O3          -1.6800    -1.0200     3.1060 o          1 5E8      -0.546000
     16 C19         -3.4690    -4.7190     2.6740 c3         1 5E8      -0.096100
     17 C10          0.4070     0.3950     3.0540 c3         1 5E8       0.215900
     18 C11          1.5590     1.0150     2.2600 c3         1 5E8      -0.085400
     19 C26          3.4770     0.4180     0.7270 c3         1 5E8      -0.092400
     20 C25          3.4090    -0.0140    -0.7560 c3         1 5E8       0.094000
     21 N1           1.9830    -0.0030    -1.1020 ns         1 5E8      -0.591900
     22 N           -0.2000     1.4160     3.9120 ns         1 5E8      -0.606900
     23 O4          -1.6620     1.9720     2.3390 o          1 5E8      -0.569100
     24 C2          -1.7490     3.3080     4.2820 c3         1 5E8      -0.143700
     25 C1          -0.6740     4.3830     4.4610 c3         1 5E8      -0.088100
     26 C4          -3.5890     4.9580     4.4850 ca         1 5E8      -0.085300
     27 C6          -5.1410     5.5490     6.2090 ca         1 5E8      -0.127500
     28 H2          -3.6930     3.1390     3.3820 hc         1 5E8       0.067700
     29 H3          -4.8990     3.5640     5.4450 ha         1 5E8       0.131500
     30 H4          -5.1670     7.6120     6.7820 ha         1 5E8       0.128000
     31 H5          -3.4110     8.2580     5.1750 ha         1 5E8       0.128500
     32 H6           2.1190    -0.9930     1.6720 hc         1 5E8       0.088700
     33 H7          -2.4020     6.5580     3.7020 ha         1 5E8       0.131500
     34 H8           0.1960    -0.0810     4.3650 ha         1 5E8       0.144000
     35 H10          0.2060    -2.1180     2.8460 ha         1 5E8       0.061000
     36 H12         -3.0250    -2.8180     1.7750 h1         1 5E8       0.053700
     37 H13         -3.6390    -2.7150     3.4310 h1         1 5E8       0.053700
     38 H14         -4.4780    -4.7450     2.2820 hc         1 5E8       0.049033
     39 H15         -2.8120    -5.2770     2.0170 hc         1 5E8       0.049033
     40 H16         -3.4530    -5.1630     3.6620 hc         1 5E8       0.049033
     41 H17         -0.3390     0.0100     2.3680 h1         1 5E8       0.168700
     42 H18          2.3580     1.2880     2.9380 hc         1 5E8       0.058700
     43 H19          1.2060     1.8980     1.7430 hc         1 5E8       0.058700
     44 H20          3.6130     1.4890     0.8110 hc         1 5E8       0.060200
     45 H21          4.2560    -0.1230     1.2500 hc         1 5E8       0.060200
     46 H22          3.8130    -1.0120    -0.8730 h1         1 5E8       0.045200
     47 H23          3.9490     0.6920    -1.3750 h1         1 5E8       0.045200
     48 H24          1.6290     0.0030    -2.0380 hn         1 5E8       0.338500
     49 H25          0.1410     1.5540     4.8430 hn         1 5E8       0.319500
     50 H26         -2.0410     2.9240     5.2530 hc         1 5E8       0.067700
     51 H27         -0.5550     4.9320     3.5340 hc         1 5E8       0.041700
     52 H28          0.2660     3.9120     4.7250 hc         1 5E8       0.041700
     53 H29         -0.9700     5.0640     5.2490 hc         1 5E8       0.041700
     54 H30         -5.9130     5.2650     6.9140 ha         1 5E8       0.128500
     55 H1          -2.6610     4.3800     2.6580 hc         1 5E8       0.067700
@<TRIPOS>BOND
     1     1     9 2
     2     9    21 1
     3     9     7 1
     4    18     7 1
     5    18    17 1
     6    21    20 1
     7     7    19 1
     8    10    17 1
     9    10    11 2
    10    22    17 1
    11    22    13 1
    12    20    19 1
    13    24    13 1
    14    24    25 1
    15    24     3 1
    16     8     6 ar
    17     8    26 ar
    18    11    12 1
    19    13    23 2
    20     6     5 ar
    21     3    26 1
    22    26     4 ar
    23    15    12 2
    24    12     2 1
    25     5    27 ar
    26     4    27 ar
    27     2    14 1
    28    14    16 1
    29     3    55 1
    30     3    28 1
    31     4    29 1
    32     5    30 1
    33     6    31 1
    34     7    32 1
    35     8    33 1
    36    10    34 1
    37    11    35 1
    38    14    36 1
    39    14    37 1
    40    16    38 1
    41    16    39 1
    42    16    40 1
    43    17    41 1
    44    18    42 1
    45    18    43 1
    46    19    44 1
    47    19    45 1
    48    20    46 1
    49    20    47 1
    50    21    48 1
    51    22    49 1
    52    24    50 1
    53    25    51 1
    54    25    52 1
    55    25    53 1
    56    27    54 1
@<TRIPOS>SUBSTRUCTURE
     1 5E8         1 TEMP              0 ****  ****    0 ROOT
