@<TRIPOS>MOLECULE
5E8
   55    56     1     0     0
SMALL
bcc


@<TRIPOS>ATOM
      1 O1           0.0000     0.0000     0.0000 o          1 5E8      -0.639500
      2 O2          -1.6300    -3.2350     3.2630 os         1 5E8      -0.414900
      3 C3          -2.9690     3.9180     3.5880 c3         1 5E8       0.042900
      4 C5          -4.5720     4.5950     5.3860 ca         1 5E8      -0.101000
      5 C7          -4.7240     6.8650     6.1340 ca         1 5E8      -0.108000
      6 C8          -3.7370     7.2260     5.2360 ca         1 5E8      -0.101000
      7 C12          2.0790     0.0000     1.2400 c3         1 5E8      -0.139700
      8 C9          -3.1750     6.2740     4.4050 ca         1 5E8      -0.101000
      9 C13          1.2130     0.0000     0.0000 c          1 5E8       0.615500
     10 C14          0.9320    -0.7310     3.9060 c2         1 5E8      -0.082200
     11 C15          0.3180    -1.9110     3.9040 ce         1 5E8      -0.182200
     12 C16         -1.0580    -2.0210     3.4000 c          1 5E8       0.688300
     13 C17         -1.2010     2.1840     3.4410 c          1 5E8       0.568100
     14 C18         -2.9920    -3.2680     2.7600 c3         1 5E8       0.224400
     15 O3          -1.6800    -1.0200     3.1060 o          1 5E8      -0.556000
     16 C19         -3.4690    -4.7190     2.6740 c3         1 5E8      -0.003100
     17 C10          0.4070     0.3950     3.0540 c3         1 5E8      -0.003100
     18 C11          1.5590     1.0150     2.2600 c3         1 5E8      -0.019400
     19 C26          3.4770     0.4180     0.7270 c3         1 5E8      -0.031400
     20 C25          3.4090    -0.0140    -0.7560 c3         1 5E8       0.043000
     21 N1           1.9830    -0.0030    -1.1020 ns         1 5E8      -0.210900
     22 N           -0.2000     1.4160     3.9120 ns         1 5E8      -0.173900
     23 O4          -1.6620     1.9720     2.3390 o          1 5E8      -0.612100
     24 C2          -1.7490     3.3080     4.2820 c3         1 5E8      -0.118700
     25 C1          -0.6740     4.3830     4.4610 c3         1 5E8       0.000900
     26 C4          -3.5890     4.9580     4.4850 ca         1 5E8      -0.088300
     27 C6          -5.1410     5.5490     6.2090 ca         1 5E8      -0.101000
     28 H2          -3.6930     3.1390     3.3820 hc         1 5E8       0.037200
     29 H3          -4.8990     3.5640     5.4450 ha         1 5E8       0.107500
     30 H4          -5.1670     7.6120     6.7820 ha         1 5E8       0.101000
     31 H5          -3.4110     8.2580     5.1750 ha         1 5E8       0.100000
     32 H6           2.1190    -0.9930     1.6720 hc         1 5E8       0.051700
     33 H7          -2.4020     6.5580     3.7020 ha         1 5E8       0.107500
     34 H8           1.9450    -0.6650     4.2870 ha         1 5E8       0.101000
     35 H10          0.7120    -2.7120     4.5170 ha         1 5E8       0.113000
     36 H12         -3.0250    -2.8180     1.7750 h1         1 5E8       0.012700
     37 H13         -3.6390    -2.7150     3.4310 h1         1 5E8       0.012700
     38 H14         -2.8230    -5.2720     2.0020 hc         1 5E8       0.009700
     39 H15         -3.4350    -5.1690     3.6590 hc         1 5E8       0.009700
     40 H16         -4.4850    -4.7440     2.3000 hc         1 5E8       0.009700
     41 H17         -0.3390     0.0100     2.3680 h1         1 5E8       0.143700
     42 H18          2.3580     1.2880     2.9380 hc         1 5E8       0.025200
     43 H19          1.2060     1.8980     1.7430 hc         1 5E8       0.025200
     44 H20          4.2560    -0.1230     1.2500 hc         1 5E8       0.027200
     45 H21          3.6130     1.4890     0.8110 hc         1 5E8       0.027200
     46 H22          3.9490     0.6920    -1.3750 h1         1 5E8       0.013200
     47 H23          3.8130    -1.0120    -0.8730 h1         1 5E8       0.013200
     48 H24          1.6290     0.0030    -2.0380 hn         1 5E8       0.194500
     49 H25          0.1100     1.5220     4.8580 hn         1 5E8       0.164500
     50 H26         -2.0410     2.9240     5.2530 hc         1 5E8       0.035700
     51 H27         -0.5590     4.9360     3.5360 hc         1 5E8       0.008033
     52 H28         -0.9680     5.0600     5.2530 hc         1 5E8       0.008033
     53 H29          0.2670     3.9120     4.7190 hc         1 5E8       0.008033
     54 H30         -5.9130     5.2650     6.9140 ha         1 5E8       0.100000
     55 H1          -2.6610     4.3800     2.6580 hc         1 5E8       0.037200
@<TRIPOS>BOND
     1     1     9 2   
     2     2    12 1   
     3     2    14 1   
     4     3    24 1   
     5     3    26 1   
     6     3    28 1   
     7     3    55 1   
     8     4    26 ar  
     9     4    27 ar  
    10     4    29 1   
    11     5     6 ar  
    12     5    27 ar  
    13     5    30 1   
    14     6     8 ar  
    15     6    31 1   
    16     7     9 1   
    17     7    18 1   
    18     7    19 1   
    19     7    32 1   
    20     8    26 ar  
    21     8    33 1   
    22     9    21 1   
    23    10    11 2   
    24    10    17 1   
    25    10    34 1   
    26    11    12 1   
    27    11    35 1   
    28    12    15 2   
    29    13    22 1   
    30    13    23 2   
    31    13    24 1   
    32    14    16 1   
    33    14    36 1   
    34    14    37 1   
    35    16    38 1   
    36    16    39 1   
    37    16    40 1   
    38    17    18 1   
    39    17    22 1   
    40    17    41 1   
    41    18    42 1   
    42    18    43 1   
    43    19    20 1   
    44    19    44 1   
    45    19    45 1   
    46    20    21 1   
    47    20    46 1   
    48    20    47 1   
    49    21    48 1   
    50    22    49 1   
    51    24    25 1   
    52    24    50 1   
    53    25    51 1   
    54    25    52 1   
    55    25    53 1   
    56    27    54 1   
@<TRIPOS>SUBSTRUCTURE
     1 5E8         1 TEMP              0 ****  ****    0 ROOT
