@<TRIPOS>MOLECULE
molecule
   72    73     1     0     0
SMALL
bcc


@<TRIPOS>ATOM
      1 C2           1.5070     0.0000     0.0000 c3         1 5E9      -0.062700
      2 C3           2.0170     0.0000     1.4430 c3         1 5E9      -0.164100
      3 C4           3.5130    -0.1830     1.4470 ca         1 5E9      -0.090300
      4 C5           4.0540    -1.4520     1.3590 ca         1 5E9      -0.111000
      5 C6           5.4260    -1.6200     1.3620 ca         1 5E9      -0.164500
      6 C7           6.2580    -0.5170     1.4530 ca         1 5E9       0.140900
      7 C8           5.7140     0.7530     1.5400 ca         1 5E9      -0.164500
      8 O1          -4.6580    -0.4490     0.7750 o          1 5E9      -0.622500
      9 N1          -5.1850     1.7330     1.0970 ns         1 5E9      -0.579900
     10 N2           0.3940     4.6670    -0.5430 nz         1 5E9      -0.805600
     11 N           -0.6740     0.0010    -1.1670 ns         1 5E9      -0.616900
     12 C            1.3550     2.4720    -0.1390 c          1 5E9       0.543100
     13 O            0.6480     2.3690     0.8350 o          1 5E9      -0.428100
     14 O3          -2.0590    -2.5210    -0.4210 o          1 5E9      -0.574000
     15 C16         -2.8070    -2.8820    -1.3090 c          1 5E9       0.701300
     16 O2          -3.3760    -4.1030    -1.2570 os         1 5E9      -0.409900
     17 C18         -3.0520    -4.9330    -0.1100 c3         1 5E9       0.148400
     18 C19         -3.7870    -6.2690    -0.2250 c3         1 5E9      -0.096100
     19 C14         -2.5880    -0.7540    -2.4550 c2         1 5E9      -0.228200
     20 C10         -2.1350    -0.1100    -1.1710 c3         1 5E9       0.277900
     21 C11         -2.7510     1.2860    -1.0550 c3         1 5E9      -0.271400
     22 C12         -4.2750     1.1660    -0.9870 c3         1 5E9      -0.164700
     23 C26         -4.9370     2.5580    -1.1410 c3         1 5E9      -0.160400
     24 C25         -5.1100     2.9840     0.3330 c3         1 5E9       0.133000
     25 C13         -4.7180     0.6960     0.3810 c          1 5E9       0.679500
     26 C17          0.0000     0.0000     0.0000 c          1 5E9       0.646100
     27 O4          -0.6070     0.0000     1.0500 o          1 5E9      -0.546100
     28 C21          2.0170     1.2500    -0.7210 c3         1 5E9      -0.175400
     29 C20          1.5740     3.8210    -0.7720 c3         1 5E9       0.081500
     30 C22          2.8040     4.4830    -0.1490 c3         1 5E9      -0.220700
     31 C24          4.0520     3.6680    -0.4960 c3         1 5E9      -0.084100
     32 C23          2.9530     5.9030    -0.6990 c3         1 5E9      -0.084100
     33 C9           4.3430     0.9200     1.5310 ca         1 5E9      -0.111000
     34 F1           7.5990    -0.6810     1.4570 f          1 5E9      -0.126900
     35 H1           1.8680    -0.8840    -0.5110 hc         1 5E9       0.065700
     36 H2           2.1270    -0.8750     0.8130 hc         1 5E9       0.115700
     37 H3           1.4170    -0.3780     2.2610 hc         1 5E9       0.115700
     38 H4           3.4030    -2.3180     1.3450 ha         1 5E9       0.140500
     39 H5           5.8500    -2.6150     1.3070 ha         1 5E9       0.156500
     40 H6           6.4490     1.5030     1.8100 ha         1 5E9       0.156500
     41 H7          -5.5390     1.6610     2.0300 hn         1 5E9       0.351500
     42 H8           0.3930     4.9880     0.4050 hn         1 5E9       0.465467
     43 H9           0.4220     5.4520    -1.1620 hn         1 5E9       0.465467
     44 H11         -0.1760     0.0810    -2.0320 hn         1 5E9       0.320500
     45 H12         -3.3580    -4.4290     0.7990 h1         1 5E9       0.053700
     46 H13         -1.9830    -5.1090    -0.0830 h1         1 5E9       0.053700
     47 H14         -3.3810    -6.9670     0.4980 hc         1 5E9       0.054700
     48 H15         -4.8420    -6.1200    -0.0290 hc         1 5E9       0.054700
     49 H16         -3.6580    -6.6680    -1.2240 hc         1 5E9       0.054700
     50 H17         -3.8080    -1.9510    -1.6310 ha         1 5E9       0.083000
     51 H19         -1.5460    -0.9100    -2.2010 ha         1 5E9       0.109000
     52 H21         -2.4520    -0.7160    -0.3310 h1         1 5E9       0.152700
     53 H22         -2.8300     0.5970    -0.2220 hc         1 5E9       0.094200
     54 H23         -2.2290     2.1280    -0.6180 hc         1 5E9       0.094200
     55 H24         -4.6410     0.4910    -1.7510 hc         1 5E9       0.099700
     56 H25         -5.4200     1.8360    -1.7880 hc         1 5E9       0.099200
     57 H26         -4.2690     3.2180    -1.6820 hc         1 5E9       0.099200
     58 H27         -4.2570     3.5680     0.6560 h1         1 5E9       0.047200
     59 H28         -6.0260     3.5500     0.4530 h1         1 5E9       0.047200
     60 H29          3.0900     1.3260    -0.5950 hc         1 5E9       0.086200
     61 H30          1.7820     1.1790    -1.7760 hc         1 5E9       0.086200
     62 H31          1.7290     3.7000    -1.8370 hx         1 5E9       0.067700
     63 H32          2.6370     4.2430    -1.1920 hc         1 5E9       0.105700
     64 H33          4.8580     4.3400    -0.7680 hc         1 5E9       0.060367
     65 H34          3.8340     3.0100    -1.3280 hc         1 5E9       0.060367
     66 H35          4.3490     3.0790     0.3630 hc         1 5E9       0.060367
     67 H36          3.9450     6.2760    -0.4730 hc         1 5E9       0.060367
     68 H37          2.8070     5.8930    -1.7720 hc         1 5E9       0.060367
     69 H38          2.2130     6.5480    -0.2390 hc         1 5E9       0.060367
     70 H39          3.9170     1.9070     1.6670 ha         1 5E9       0.140500
     71 C15         -3.0890    -1.9870    -2.4400 ce         1 5E9      -0.155200
     72 H231        -0.4360     4.1280    -0.6920 hn         1 5E9       0.465467
@<TRIPOS>BOND
     1    18    17 1   
     2    14    15 2   
     3    17    16 1   
     4    15    71 1   
     5    15    16 1   
     6    71    19 2   
     7    19    20 1   
     8    20    21 1   
     9    20    11 1   
    10    21    22 1   
    11     8    25 2   
    12    11    26 1   
    13    25    22 1   
    14    25     9 1   
    15    23    22 1   
    16    23    24 1   
    17     9    24 1   
    18    27    26 2   
    19    26     1 1   
    20     2     1 1   
    21     2     3 1   
    22     1    28 1   
    23     3    33 ar  
    24     3     4 ar  
    25    33     7 ar  
    26    13    12 2   
    27     4     5 ar  
    28    28    12 1   
    29     7     6 ar  
    30    31    30 1   
    31    12    29 1   
    32     5     6 ar  
    33     6    34 1   
    34    30    29 1   
    35    30    32 1   
    36    29    10 1   
    37     1    35 1   
    38     2    36 1   
    39     2    37 1   
    40     4    38 1   
    41     5    39 1   
    42     7    40 1   
    43     9    41 1   
    44    10    42 1   
    45    10    43 1   
    46    11    44 1   
    47    17    45 1   
    48    17    46 1   
    49    18    47 1   
    50    18    48 1   
    51    18    49 1   
    52    71    50 1   
    53    19    51 1   
    54    20    52 1   
    55    21    53 1   
    56    21    54 1   
    57    22    55 1   
    58    23    56 1   
    59    23    57 1   
    60    24    58 1   
    61    24    59 1   
    62    28    60 1   
    63    28    61 1   
    64    29    62 1   
    65    30    63 1   
    66    31    64 1   
    67    31    65 1   
    68    31    66 1   
    69    32    67 1   
    70    32    68 1   
    71    32    69 1   
    72    33    70 1   
    73    72    10 1   
@<TRIPOS>SUBSTRUCTURE
     1 5E9         1 TEMP              0 ****  ****    0 ROOT
