@<TRIPOS>MOLECULE
5E9
   72    73     1     0     0
SMALL
bcc


@<TRIPOS>ATOM
      1 C2           1.5070     0.0000     0.0000 c3         1 5E9      -0.013700
      2 C3           2.0170     0.0000     1.4430 c3         1 5E9      -0.142100
      3 C4           3.5130    -0.1830     1.4470 ca         1 5E9      -0.072300
      4 C5           4.0540    -1.4520     1.3590 ca         1 5E9      -0.091000
      5 C6           5.4260    -1.6200     1.3620 ca         1 5E9      -0.124000
      6 C7           6.2580    -0.5170     1.4530 ca         1 5E9       0.109900
      7 C8           5.7140     0.7530     1.5400 ca         1 5E9      -0.124000
      8 O1          -4.6580    -0.4490     0.7750 o          1 5E9      -0.647500
      9 N1          -5.1850     1.7330     1.0970 ns         1 5E9      -0.190900
     10 N2           0.3940     4.6670    -0.5430 nz         1 5E9       0.085400
     11 N           -0.6740     0.0010    -1.1670 ns         1 5E9      -0.186900
     12 C            1.3550     2.4720    -0.1390 c          1 5E9       0.585100
     13 O            0.6480     2.3690     0.8350 o          1 5E9      -0.475100
     14 O3          -2.0590    -2.5210    -0.4210 o          1 5E9      -0.597000
     15 C16         -2.8070    -2.8820    -1.3090 c          1 5E9       0.707300
     16 O2          -3.3760    -4.1030    -1.2570 os         1 5E9      -0.398900
     17 C18         -3.0520    -4.9330    -0.1100 c3         1 5E9       0.226400
     18 C19         -3.7870    -6.2690    -0.2250 c3         1 5E9      -0.003100
     19 C14         -2.5880    -0.7540    -2.4550 c2         1 5E9      -0.123200
     20 C10         -2.1350    -0.1100    -1.1710 c3         1 5E9       0.093900
     21 C11         -2.7510     1.2860    -1.0550 c3         1 5E9      -0.321400
     22 C12         -4.2750     1.1660    -0.9870 c3         1 5E9      -0.123700
     23 C26         -4.9370     2.5580    -1.1410 c3         1 5E9      -0.119400
     24 C25         -5.1100     2.9840     0.3330 c3         1 5E9       0.094000
     25 C13         -4.7180     0.6960     0.3810 c          1 5E9       0.594500
     26 C17          0.0000     0.0000     0.0000 c          1 5E9       0.551100
     27 O4          -0.6070     0.0000     1.0500 o          1 5E9      -0.590100
     28 C21          2.0170     1.2500    -0.7210 c3         1 5E9      -0.130400
     29 C20          1.5740     3.8210    -0.7720 c3         1 5E9      -0.214500
     30 C22          2.8040     4.4830    -0.1490 c3         1 5E9      -0.022700
     31 C24          4.0520     3.6680    -0.4960 c3         1 5E9      -0.016100
     32 C23          2.9530     5.9030    -0.6990 c3         1 5E9      -0.016100
     33 C9           4.3430     0.9200     1.5310 ca         1 5E9      -0.091000
     34 F1           7.5990    -0.6810     1.4570 f          1 5E9      -0.117900
     35 H1           1.8680    -0.8840    -0.5110 hc         1 5E9       0.035700
     36 H2           2.1270    -0.8750     0.8130 hc         1 5E9       0.091200
     37 H3           1.4170    -0.3780     2.2610 hc         1 5E9       0.091200
     38 H4           3.4030    -2.3180     1.3470 ha         1 5E9       0.113000
     39 H5           5.8500    -2.6160     1.3120 ha         1 5E9       0.127500
     40 H6           6.4550     1.5000     1.7990 ha         1 5E9       0.127500
     41 H7          -5.5390     1.6610     2.0300 hn         1 5E9       0.205500
     42 H8          -0.4360     4.1190    -0.6550 hn         1 5E9       0.229467
     43 H9           0.4250     5.0390     0.3850 hn         1 5E9       0.229467
     44 H11         -0.1740     0.0540    -2.0330 hn         1 5E9       0.168500
     45 H12         -1.9830    -5.1090    -0.0830 h1         1 5E9       0.011700
     46 H13         -3.3580    -4.4290     0.7990 h1         1 5E9       0.011700
     47 H14         -3.5090    -6.7560    -1.1520 hc         1 5E9       0.014700
     48 H15         -4.8560    -6.0960    -0.2140 hc         1 5E9       0.014700
     49 H16         -3.5160    -6.9030     0.6110 hc         1 5E9       0.014700
     50 H17         -3.4170    -2.4290    -3.3730 ha         1 5E9       0.122000
     51 H19         -2.8010    -0.1130    -3.3020 ha         1 5E9       0.114000
     52 H21         -2.4520    -0.7160    -0.3310 h1         1 5E9       0.130700
     53 H22         -2.8300     0.5960    -0.2220 hc         1 5E9       0.097200
     54 H23         -2.2290     2.1280    -0.6180 hc         1 5E9       0.097200
     55 H24         -4.6410     0.4910    -1.7510 hc         1 5E9       0.061700
     56 H25         -5.4200     1.8370    -1.7890 hc         1 5E9       0.071200
     57 H26         -4.2690     3.2180    -1.6820 hc         1 5E9       0.071200
     58 H27         -4.2570     3.5680     0.6560 h1         1 5E9       0.011700
     59 H28         -6.0260     3.5500     0.4530 h1         1 5E9       0.011700
     60 H29          1.7820     1.1790    -1.7760 hc         1 5E9       0.058200
     61 H30          3.0900     1.3260    -0.5950 hc         1 5E9       0.058200
     62 H31          1.7290     3.7000    -1.8370 hx         1 5E9       0.101700
     63 H32          2.4390     4.4230     0.8690 hc         1 5E9       0.041700
     64 H33          4.1760     2.8720     0.2280 hc         1 5E9       0.029200
     65 H34          4.9220     4.3140    -0.4750 hc         1 5E9       0.029200
     66 H35          3.9420     3.2430    -1.4860 hc         1 5E9       0.029200
     67 H36          2.2570     6.5610    -0.1920 hc         1 5E9       0.029200
     68 H37          3.9650     6.2510    -0.5310 hc         1 5E9       0.029200
     69 H38          2.7430     5.9040    -1.7610 hc         1 5E9       0.029200
     70 H39          3.9170     1.9070     1.6680 ha         1 5E9       0.113000
     71 C15         -3.0890    -1.9870    -2.4400 ce         1 5E9      -0.147200
     72 H231         0.3760     5.4040    -1.2200 hn         1 5E9       0.229467
@<TRIPOS>BOND
     1     1     2 1   
     2     1    26 1   
     3     1    28 1   
     4     1    35 1   
     5     2     3 1   
     6     2    36 1   
     7     2    37 1   
     8     3     4 ar  
     9     3    33 ar  
    10     4     5 ar  
    11     4    38 1   
    12     5     6 ar  
    13     5    39 1   
    14     6     7 ar  
    15     6    34 1   
    16     7    33 ar  
    17     7    40 1   
    18     8    25 2   
    19     9    24 1   
    20     9    25 1   
    21     9    41 1   
    22    10    29 1   
    23    10    42 1   
    24    10    43 1   
    25    10    72 1   
    26    11    20 1   
    27    11    26 1   
    28    11    44 1   
    29    12    13 2   
    30    12    28 1   
    31    12    29 1   
    32    14    15 2   
    33    15    16 1   
    34    15    71 1   
    35    16    17 1   
    36    17    18 1   
    37    17    45 1   
    38    17    46 1   
    39    18    47 1   
    40    18    48 1   
    41    18    49 1   
    42    19    20 1   
    43    19    51 1   
    44    19    71 2   
    45    20    21 1   
    46    20    52 1   
    47    21    22 1   
    48    21    53 1   
    49    21    54 1   
    50    22    23 1   
    51    22    25 1   
    52    22    55 1   
    53    23    24 1   
    54    23    56 1   
    55    23    57 1   
    56    24    58 1   
    57    24    59 1   
    58    26    27 2   
    59    28    60 1   
    60    28    61 1   
    61    29    30 1   
    62    29    62 1   
    63    30    31 1   
    64    30    32 1   
    65    30    63 1   
    66    31    64 1   
    67    31    65 1   
    68    31    66 1   
    69    32    67 1   
    70    32    68 1   
    71    32    69 1   
    72    33    70 1   
    73    50    71 1   
@<TRIPOS>SUBSTRUCTURE
     1 5E9         1 TEMP              0 ****  ****    0 ROOT
