@<TRIPOS>MOLECULE
5EA
   50    53     1     0     0
SMALL
bcc


@<TRIPOS>ATOM
      1 I1          0.0820   -0.5650   -0.4960 i         1 5EA     -0.135900
      2 C23         2.0610   -0.2480   -0.2620 ca        1 5EA      0.003900
      3 C21         2.6520   -0.3890    0.9920 ca        1 5EA     -0.072000
      4 C16         4.0150   -0.1770    1.1640 ca        1 5EA     -0.169000
      5 C19         2.8410    0.1140   -1.3560 ca        1 5EA     -0.097000
      6 C15         4.2170    0.3350   -1.2020 ca        1 5EA      0.071900
      7 F20         4.9540    0.6820   -2.2870 f         1 5EA     -0.133900
      8 C10         4.8380    0.1950    0.0800 ca        1 5EA      0.156600
      9 N5          6.2020    0.4790    0.2220 nh        1 5EA     -0.625000
     10 C2          6.9080    0.1390    1.3910 ca        1 5EA      0.156600
     11 C6          6.7360    0.9300    2.5670 ca        1 5EA      0.084900
     12 F1          5.8550    1.9540    2.6010 f         1 5EA     -0.106900
     13 C11         7.4950    0.6560    3.7340 ca        1 5EA      0.115900
     14 F17         7.3110    1.4130    4.8380 f         1 5EA     -0.116900
     15 C9          8.4350   -0.3870    3.7390 ca        1 5EA     -0.155000
     16 C4          8.6080   -1.1530    2.5990 ca        1 5EA     -0.082000
     17 C1          7.8560   -0.9160    1.4380 ca        1 5EA     -0.139500
     18 C3          8.0790   -1.7850    0.3000 cc        1 5EA      0.474900
     19 O7          8.7660   -3.0010    0.5470 os        1 5EA     -0.413800
     20 C13         8.8350   -3.5970   -0.7360 cc        1 5EA      0.683300
     21 N14         8.2160   -2.7770   -1.6460 nd        1 5EA     -0.387000
     22 N8          7.7800   -1.7100   -1.0110 nd        1 5EA     -0.325000
     23 N18         9.5580   -4.7650   -0.8560 nh        1 5EA     -0.800900
     24 C22         9.3070   -5.5780   -2.0320 c3        1 5EA      0.186800
     25 C24        10.2740   -6.7840   -2.0840 c3        1 5EA      0.162800
     26 N26         9.8870   -7.7450   -3.1070 n3        1 5EA     -0.725600
     27 C27        10.0060   -7.2120   -4.4590 c3        1 5EA      0.129300
     28 C29         9.7030   -8.2590   -5.5360 c3        1 5EA      0.126400
     29 O31        10.4720   -9.4420   -5.3520 os        1 5EA     -0.412600
     30 C30        10.2750  -10.0090   -4.0620 c3        1 5EA      0.126400
     31 C28        10.6030   -9.0070   -2.9500 c3        1 5EA      0.129300
     32 H21         2.0450   -0.6730    1.8670 ha        1 5EA      0.148000
     33 H16         4.4540   -0.2870    2.1680 ha        1 5EA      0.144000
     34 H19         2.4010    0.2320   -2.3590 ha        1 5EA      0.161000
     35 HN5         6.7300    0.4400   -0.6290 hn        1 5EA      0.460800
     36 H9          9.0240   -0.5810    4.6480 ha        1 5EA      0.163000
     37 H4          9.3460   -1.9720    2.6020 ha        1 5EA      0.160000
     38 H18         9.6630   -5.2660    0.0040 hn        1 5EA      0.426800
     39 H221        8.2400   -5.9450   -2.0500 h1        1 5EA      0.070700
     40 H222        9.4680   -4.9280   -2.9390 h1        1 5EA      0.070700
     41 H241       10.2510   -7.3220   -1.0930 h1        1 5EA      0.042200
     42 H242       11.3230   -6.3980   -2.2400 h1        1 5EA      0.042200
     43 H271       11.0370   -6.7910   -4.6490 h1        1 5EA      0.043450
     44 H272        9.2620   -6.3730   -4.5640 h1        1 5EA      0.043450
     45 H291        8.6110   -8.5170   -5.5420 h1        1 5EA      0.056950
     46 H292       10.0150   -7.8770   -6.5430 h1        1 5EA      0.056950
     47 H301       10.9890  -10.8730   -4.0240 h1        1 5EA      0.056950
     48 H302        9.2190  -10.3750   -3.9680 h1        1 5EA      0.056950
     49 H281       10.2960   -9.4570   -1.9650 h1        1 5EA      0.043450
     50 H282       11.7200   -8.8500   -2.9290 h1        1 5EA      0.043450
@<TRIPOS>BOND
     1    1    2 1   
     2    2    3 ar  
     3    2    5 ar  
     4    3    4 ar  
     5    3   32 1   
     6    4    8 ar  
     7    4   33 1   
     8    5    6 ar  
     9    5   34 1   
    10    6    7 1   
    11    6    8 ar  
    12    8    9 1   
    13    9   10 1   
    14    9   35 1   
    15   10   11 ar  
    16   10   17 ar  
    17   11   12 1   
    18   11   13 ar  
    19   13   14 1   
    20   13   15 ar  
    21   15   16 ar  
    22   15   36 1   
    23   16   17 ar  
    24   16   37 1   
    25   17   18 1   
    26   18   19 1   
    27   18   22 2   
    28   19   20 1   
    29   20   21 2   
    30   20   23 1   
    31   21   22 1   
    32   23   24 1   
    33   23   38 1   
    34   24   25 1   
    35   24   39 1   
    36   24   40 1   
    37   25   26 1   
    38   25   41 1   
    39   25   42 1   
    40   26   27 1   
    41   26   31 1   
    42   27   28 1   
    43   27   43 1   
    44   27   44 1   
    45   28   29 1   
    46   28   45 1   
    47   28   46 1   
    48   29   30 1   
    49   30   31 1   
    50   30   47 1   
    51   30   48 1   
    52   31   49 1   
    53   31   50 1   
@<TRIPOS>SUBSTRUCTURE
     1 5EA         1 TEMP              0 ****  ****    0 ROOT
