@<TRIPOS>MOLECULE
molecule
   69    71     1     0     0
SMALL
bcc


@<TRIPOS>ATOM
      1 C2           1.4650     0.0000     0.0000 c3         1 5EB       0.049700
      2 C3           1.9760     0.0000     1.4420 c3         1 5EB      -0.044100
      3 C4           1.5790     1.2870     2.1160 ca         1 5EB      -0.071300
      4 C5           2.4160     2.3850     2.0580 ca         1 5EB      -0.114000
      5 C6           2.0490     3.5690     2.6720 ca         1 5EB      -0.120000
      6 C7           0.8440     3.6530     3.3420 ca         1 5EB      -0.123000
      7 N1           2.4760    -4.8320    -4.8040 ns         1 5EB      -0.586900
      8 N2           0.0000     0.0000     0.0000 ns         1 5EB      -0.574900
      9 C8           0.0050     2.5560     3.4000 ca         1 5EB      -0.120000
     10 C20         -0.6730     1.1640     0.1020 c          1 5EB       0.656100
     11 C22         -2.1800     1.1640     0.1030 c3         1 5EB      -0.151400
     12 C23         -2.6900     2.6010     0.2280 c3         1 5EB      -0.031400
     13 C27         -4.2190     2.6030     0.2300 cx         1 5EB      -0.142700
     14 C21         -4.9250     3.9590     0.2320 cx         1 5EB      -0.137900
     15 C24         -4.9240     3.0950     1.4950 cx         1 5EB      -0.137900
     16 C9           0.3730     1.3730     2.7870 ca         1 5EB      -0.114000
     17 C17          1.9670    -1.2310    -0.7110 c          1 5EB       0.659100
     18 O4           1.1780    -2.0290    -1.1710 o          1 5EB      -0.588100
     19 N            3.2920    -1.4450    -0.8340 ns         1 5EB      -0.600900
     20 C10          3.7800    -2.6930    -1.4260 c3         1 5EB       0.215900
     21 C14          5.1380    -3.0190    -0.8620 c2         1 5EB      -0.240200
     22 C15          5.2730    -4.0080     0.0180 ce         1 5EB      -0.179200
     23 C16          4.0960    -4.5240     0.7300 c          1 5EB       0.707300
     24 O2           4.2090    -5.6090     1.5220 os         1 5EB      -0.422900
     25 C18          3.0050    -6.0640     2.1940 c3         1 5EB       0.150400
     26 C19          3.3280    -7.2960     3.0410 c3         1 5EB      -0.096100
     27 O3           3.0210    -3.9730     0.6050 o          1 5EB      -0.560000
     28 C11          3.8840    -2.5320    -2.9440 c3         1 5EB      -0.089400
     29 C12          4.2330    -3.8800    -3.5780 c3         1 5EB      -0.158700
     30 C26          4.5760    -3.7070    -5.0790 c3         1 5EB      -0.092400
     31 C25          3.2070    -3.9740    -5.7440 c3         1 5EB       0.093000
     32 C13          3.0270    -4.7930    -3.5780 c          1 5EB       0.706500
     33 O1           2.6130    -5.3980    -2.6120 o          1 5EB      -0.634500
     34 H1           1.8260     0.8840    -0.5110 h1         1 5EB       0.093700
     35 H2           3.0550    -0.0900     1.4430 hc         1 5EB       0.057200
     36 H3           1.5440    -0.8360     1.9780 hc         1 5EB       0.057200
     37 H4           3.3610     2.3190     1.5320 ha         1 5EB       0.122500
     38 H5           2.7060     4.4290     2.6270 ha         1 5EB       0.125000
     39 H6           0.5560     4.5810     3.8230 ha         1 5EB       0.125000
     40 H7          -0.5000    -0.8580    -0.1240 hn         1 5EB       0.336500
     41 H8          -0.9400     2.6230     3.9250 ha         1 5EB       0.125000
     42 H9          -2.5410     0.5790     0.9410 hc         1 5EB       0.061700
     43 H10         -2.5420     0.7320    -0.8210 hc         1 5EB       0.061700
     44 H11         -2.3290     3.1860    -0.6090 hc         1 5EB       0.061200
     45 H12         -2.3270     3.0340     1.1530 hc         1 5EB       0.061200
     46 H13         -4.7430     1.8200    -0.3050 hc         1 5EB       0.076700
     47 H14         -4.2740     4.8250     0.2570 hc         1 5EB       0.073450
     48 H15         -5.8640     3.9990    -0.3080 hc         1 5EB       0.073450
     49 H16         -4.2730     3.4320     2.2920 hc         1 5EB       0.073450
     50 H17         -5.8630     2.6060     1.7270 hc         1 5EB       0.073450
     51 H18         -0.2840     0.5130     2.8320 ha         1 5EB       0.122500
     52 H19          3.9410    -0.7290    -0.5720 hn         1 5EB       0.324500
     53 H20          3.0900    -3.4960    -1.1950 h1         1 5EB       0.161700
     54 H21          4.5480    -2.2940    -0.3140 ha         1 5EB       0.136000
     55 H23          4.7400    -4.8220    -0.4570 ha         1 5EB       0.075000
     56 H25          2.6290    -5.2740     2.8330 h1         1 5EB       0.052700
     57 H26          2.2540    -6.3190     1.4560 h1         1 5EB       0.052700
     58 H27          3.7200    -8.0800     2.4040 hc         1 5EB       0.049367
     59 H28          2.4260    -7.6450     3.5290 hc         1 5EB       0.049367
     60 H29          4.0660    -7.0360     3.7890 hc         1 5EB       0.049367
     61 H30          4.6590    -1.8110    -3.1780 hc         1 5EB       0.059200
     62 H31          2.9370    -2.1830    -3.3360 hc         1 5EB       0.059200
     63 H32          5.0590    -4.3480    -3.0550 hc         1 5EB       0.090700
     64 H33          4.9140    -2.6980    -5.2840 hc         1 5EB       0.061200
     65 H34          5.3080    -4.4410    -5.3940 hc         1 5EB       0.061200
     66 H35          2.6750    -3.0420    -5.8910 h1         1 5EB       0.046700
     67 H22          3.3450    -4.4880    -6.6880 h1         1 5EB       0.046700
     68 H36          1.6720    -5.3760    -5.0440 hn         1 5EB       0.339500
     69 O21         -0.0650     2.2090     0.1930 o          1 5EB      -0.603100
@<TRIPOS>BOND
     1    15    14 1   
     2    15    13 1   
     3    14    13 1   
     4    13    12 1   
     5    12    11 1   
     6     5     6 ar  
     7     5     4 ar  
     8     6     9 ar  
     9    69    10 2   
    10    11    10 1   
    11     4     3 ar  
    12    10     8 1   
    13     9    16 ar  
    14     3    16 ar  
    15     3     2 1   
    16     8     1 1   
    17     1     2 1   
    18     1    17 1   
    19    33    32 2   
    20    19    17 1   
    21    19    20 1   
    22    17    18 2   
    23    29    32 1   
    24    29    28 1   
    25    29    30 1   
    26    32     7 1   
    27     7    31 1   
    28    28    20 1   
    29    30    31 1   
    30    20    21 1   
    31    21    22 2   
    32    22    23 1   
    33    24    23 1   
    34    24    25 1   
    35    23    27 2   
    36    25    26 1   
    37     1    34 1   
    38     2    35 1   
    39     2    36 1   
    40     4    37 1   
    41     5    38 1   
    42     6    39 1   
    43     8    40 1   
    44     9    41 1   
    45    11    42 1   
    46    11    43 1   
    47    12    44 1   
    48    12    45 1   
    49    13    46 1   
    50    14    47 1   
    51    14    48 1   
    52    15    49 1   
    53    15    50 1   
    54    16    51 1   
    55    19    52 1   
    56    20    53 1   
    57    21    54 1   
    58    22    55 1   
    59    25    56 1   
    60    25    57 1   
    61    26    58 1   
    62    26    59 1   
    63    26    60 1   
    64    28    61 1   
    65    28    62 1   
    66    29    63 1   
    67    30    64 1   
    68    30    65 1   
    69    31    66 1   
    70     7    68 1   
    71    31    67 1   
@<TRIPOS>SUBSTRUCTURE
     1 5EB         1 TEMP              0 ****  ****    0 ROOT
