@<TRIPOS>MOLECULE
5EC
   68    69     1     0     0
SMALL
bcc


@<TRIPOS>ATOM
      1 C2           1.5070     0.0000     0.0000 c3         1 5EC      -0.052300
      2 C3           2.0170     0.0000     1.4420 c3         1 5EC       0.021900
      3 C4           3.5190    -0.1240     1.4440 ca         1 5EC      -0.079300
      4 C5           4.1090    -1.3740     1.4740 ca         1 5EC      -0.091000
      5 C6           5.4870    -1.4880     1.4750 ca         1 5EC      -0.092500
      6 C7           6.2740    -0.3530     1.4460 ca         1 5EC      -0.099000
      7 N1          -5.0440     0.1990    -2.1010 ns         1 5EC      -0.200900
      8 C8           5.6850     0.8970     1.4160 ca         1 5EC      -0.092500
      9 C20          3.7210     2.4230    -1.9710 c3         1 5EC      -0.094400
     10 C22          5.1230     2.1560    -2.5210 c3         1 5EC      -0.033700
     11 C23          5.5830     3.3590    -3.3480 c3         1 5EC      -0.013100
     12 C24          6.0940     1.9350    -1.3600 c3         1 5EC      -0.013100
     13 O            3.9130     0.2010    -1.2000 o          1 5EC      -0.649100
     14 N5           1.9960     1.1950    -0.6920 ns         1 5EC      -0.180900
     15 C9           4.3070     1.0110     1.4100 ca         1 5EC      -0.091000
     16 C17          0.0000     0.0000     0.0000 c          1 5EC       0.564100
     17 O4          -0.6060     0.9100    -0.5250 o          1 5EC      -0.633100
     18 N           -0.6740    -1.0110     0.5840 ns         1 5EC      -0.161900
     19 C10         -2.1350    -0.9580     0.6780 c3         1 5EC      -0.040100
     20 C11         -2.7500    -1.5710    -0.5810 c3         1 5EC      -0.020400
     21 C12         -4.2670    -1.3800    -0.5530 c3         1 5EC      -0.138700
     22 C13         -4.6180     0.0640    -0.8340 c          1 5EC       0.623500
     23 O1          -4.5260     0.9700    -0.0310 o          1 5EC      -0.655500
     24 C25         -5.0280    -1.0870    -2.8080 c3         1 5EC       0.042000
     25 C26         -4.9320    -2.1640    -1.7050 c3         1 5EC      -0.031400
     26 C14         -2.5880    -1.7350     1.8880 c2         1 5EC      -0.078200
     27 C15         -2.9080    -1.0940     3.0090 ce         1 5EC      -0.179200
     28 C16         -2.6930     0.3560     3.1130 c          1 5EC       0.699300
     29 O3          -2.2730     0.9780     2.1580 o          1 5EC      -0.558000
     30 O2          -2.9630     0.9960     4.2690 os         1 5EC      -0.411900
     31 C18         -2.7280     2.4280     4.3000 c3         1 5EC       0.224400
     32 C19         -3.0880     2.9760     5.6820 c3         1 5EC      -0.003100
     33 H1           1.8670    -0.8850    -0.5100 h1         1 5EC       0.065700
     34 H2           1.5850    -0.8360     1.9780 hc         1 5EC       0.023700
     35 H3           1.7310     0.9260     1.9260 hc         1 5EC       0.023700
     36 H4           3.4920    -2.2640     1.4970 ha         1 5EC       0.098500
     37 H5           5.9490    -2.4680     1.4990 ha         1 5EC       0.101000
     38 H6           7.3540    -0.4430     1.4490 ha         1 5EC       0.099000
     39 H7          -5.2180     1.0860    -2.5300 hn         1 5EC       0.194500
     40 H8           6.3030     1.7860     1.3910 ha         1 5EC       0.101000
     41 H9           3.7580     3.2530    -1.2750 hc         1 5EC       0.029200
     42 H10          3.0520     2.6670    -2.7870 hc         1 5EC       0.029200
     43 H11          5.1020     1.2730    -3.1480 hc         1 5EC       0.040700
     44 H12          6.5660     3.1610    -3.7580 hc         1 5EC       0.008200
     45 H13          5.6260     4.2370    -2.7150 hc         1 5EC       0.008200
     46 H14          4.8820     3.5310    -4.1560 hc         1 5EC       0.008200
     47 H15          6.0970     0.8870    -1.0850 hc         1 5EC       0.008200
     48 H16          7.0910     2.2320    -1.6610 hc         1 5EC       0.008200
     49 H17          5.7820     2.5300    -0.5100 hc         1 5EC       0.008200
     50 H18          1.4140     2.0060    -0.7630 hn         1 5EC       0.199500
     51 H19          3.8450     1.9910     1.3860 ha         1 5EC       0.098500
     52 H20         -0.1800    -1.8160     0.9150 hn         1 5EC       0.166500
     53 H21         -2.4540     0.0730     0.7710 h1         1 5EC       0.170700
     54 H22         -2.3410    -1.0820    -1.4570 hc         1 5EC       0.023700
     55 H23         -2.5200    -2.6280    -0.6180 hc         1 5EC       0.023700
     56 H24         -4.6780    -1.6900     0.4010 hc         1 5EC       0.052700
     57 H25         -5.9420    -1.2140    -3.3750 h1         1 5EC       0.014200
     58 H26         -4.1640    -1.1440    -3.4610 h1         1 5EC       0.014200
     59 H27         -5.9180    -2.5080    -1.4170 hc         1 5EC       0.028200
     60 H28         -4.3040    -2.9870    -2.0230 hc         1 5EC       0.028200
     61 H29         -2.7470    -2.8040     1.8130 ha         1 5EC       0.103000
     62 H31         -3.2340    -1.6550     3.8770 ha         1 5EC       0.116000
     63 H33         -3.3420     2.9110     3.5490 h1         1 5EC       0.012200
     64 H34         -1.6830     2.6270     4.0940 h1         1 5EC       0.012200
     65 H35         -4.1250     2.7490     5.9010 hc         1 5EC       0.010367
     66 H36         -2.4520     2.5160     6.4290 hc         1 5EC       0.010367
     67 H37         -2.9430     4.0490     5.6950 hc         1 5EC       0.010367
     68 C            3.2180     1.1930    -1.2600 c          1 5EC       0.569100
@<TRIPOS>BOND
     1     1     2 1   
     2     1    14 1   
     3     1    16 1   
     4     1    33 1   
     5     2     3 1   
     6     2    34 1   
     7     2    35 1   
     8     3     4 ar  
     9     3    15 ar  
    10     4     5 ar  
    11     4    36 1   
    12     5     6 ar  
    13     5    37 1   
    14     6     8 ar  
    15     6    38 1   
    16     7    22 1   
    17     7    24 1   
    18     7    39 1   
    19     8    15 ar  
    20     8    40 1   
    21     9    10 1   
    22     9    41 1   
    23     9    42 1   
    24     9    68 1   
    25    10    11 1   
    26    10    12 1   
    27    10    43 1   
    28    11    44 1   
    29    11    45 1   
    30    11    46 1   
    31    12    47 1   
    32    12    48 1   
    33    12    49 1   
    34    13    68 2   
    35    14    50 1   
    36    14    68 1   
    37    15    51 1   
    38    16    17 2   
    39    16    18 1   
    40    18    19 1   
    41    18    52 1   
    42    19    20 1   
    43    19    26 1   
    44    19    53 1   
    45    20    21 1   
    46    20    54 1   
    47    20    55 1   
    48    21    22 1   
    49    21    25 1   
    50    21    56 1   
    51    22    23 2   
    52    24    25 1   
    53    24    57 1   
    54    24    58 1   
    55    25    59 1   
    56    25    60 1   
    57    26    27 2   
    58    26    61 1   
    59    27    28 1   
    60    27    62 1   
    61    28    29 2   
    62    28    30 1   
    63    30    31 1   
    64    31    32 1   
    65    31    63 1   
    66    31    64 1   
    67    32    65 1   
    68    32    66 1   
    69    32    67 1   
@<TRIPOS>SUBSTRUCTURE
     1 5EC         1 TEMP              0 ****  ****    0 ROOT
