@<TRIPOS>MOLECULE
molecule
   68    69     1     0     0
SMALL
bcc


@<TRIPOS>ATOM
      1 C2           1.5070     0.0000     0.0000 c3         1 5EC       0.047700
      2 C3           2.0170     0.0000     1.4420 c3         1 5EC      -0.045100
      3 C4           3.5190    -0.1240     1.4440 ca         1 5EC      -0.070300
      4 C5           4.1090    -1.3740     1.4740 ca         1 5EC      -0.115500
      5 C6           5.4870    -1.4880     1.4750 ca         1 5EC      -0.118500
      6 C7           6.2740    -0.3530     1.4460 ca         1 5EC      -0.126000
      7 N1          -5.0440     0.1990    -2.1010 ns         1 5EC      -0.584900
      8 C8           5.6850     0.8970     1.4160 ca         1 5EC      -0.118500
      9 C20          3.7210     2.4230    -1.9710 c3         1 5EC      -0.149400
     10 C22          5.1230     2.1560    -2.5210 c3         1 5EC      -0.059700
     11 C23          5.5830     3.3590    -3.3480 c3         1 5EC      -0.092600
     12 C24          6.0940     1.9350    -1.3600 c3         1 5EC      -0.092600
     13 O            3.9130     0.2010    -1.2000 o          1 5EC      -0.603100
     14 N5           1.9960     1.1950    -0.6920 ns         1 5EC      -0.574900
     15 C9           4.3070     1.0110     1.4100 ca         1 5EC      -0.115500
     16 C17          0.0000     0.0000     0.0000 c          1 5EC       0.654100
     17 O4          -0.6060     0.9100    -0.5250 o          1 5EC      -0.584100
     18 N           -0.6740    -1.0110     0.5840 ns         1 5EC      -0.616900
     19 C10         -2.1350    -0.9580     0.6780 c3         1 5EC       0.225900
     20 C11         -2.7500    -1.5710    -0.5810 c3         1 5EC      -0.088400
     21 C12         -4.2670    -1.3800    -0.5530 c3         1 5EC      -0.157700
     22 C13         -4.6180     0.0640    -0.8340 c          1 5EC       0.701500
     23 O1          -4.5260     0.9700    -0.0310 o          1 5EC      -0.629500
     24 C25         -5.0280    -1.0870    -2.8080 c3         1 5EC       0.094000
     25 C26         -4.9320    -2.1640    -1.7050 c3         1 5EC      -0.091400
     26 C14         -2.5880    -1.7350     1.8880 c2         1 5EC      -0.276200
     27 C15         -2.9080    -1.0940     3.0090 ce         1 5EC      -0.181200
     28 C16         -2.6930     0.3560     3.1130 c          1 5EC       0.713300
     29 O3          -2.2730     0.9780     2.1580 o          1 5EC      -0.562000
     30 O2          -2.9630     0.9960     4.2690 os         1 5EC      -0.418900
     31 C18         -2.7280     2.4280     4.3000 c3         1 5EC       0.148400
     32 C19         -3.0880     2.9760     5.6820 c3         1 5EC      -0.096100
     33 H1           1.8670    -0.8850    -0.5100 h1         1 5EC       0.094700
     34 H2           1.5850    -0.8360     1.9780 hc         1 5EC       0.056200
     35 H3           1.7310     0.9260     1.9260 hc         1 5EC       0.056200
     36 H4           3.4920    -2.2640     1.4970 ha         1 5EC       0.122000
     37 H5           5.9490    -2.4680     1.4990 ha         1 5EC       0.126500
     38 H6           7.3540    -0.4430     1.4490 ha         1 5EC       0.126000
     39 H7          -5.2180     1.0860    -2.5300 hn         1 5EC       0.339500
     40 H8           6.3030     1.7860     1.3910 ha         1 5EC       0.126500
     41 H9           3.7580     3.2530    -1.2750 hc         1 5EC       0.060200
     42 H10          3.0520     2.6670    -2.7870 hc         1 5EC       0.060200
     43 H11          5.1020     1.2730    -3.1480 hc         1 5EC       0.066700
     44 H12          4.8740     3.5400    -4.1470 hc         1 5EC       0.036867
     45 H13          5.6410     4.2340    -2.7120 hc         1 5EC       0.036867
     46 H14          6.5590     3.1540    -3.7710 hc         1 5EC       0.036867
     47 H15          5.7820     2.5300    -0.5100 hc         1 5EC       0.036867
     48 H16          6.0970     0.8870    -1.0850 hc         1 5EC       0.036867
     49 H17          7.0910     2.2320    -1.6610 hc         1 5EC       0.036867
     50 H18          1.4140     2.0060    -0.7610 hn         1 5EC       0.335500
     51 H19          3.8450     1.9910     1.3860 ha         1 5EC       0.122000
     52 H20         -0.1810    -1.8200     0.9050 hn         1 5EC       0.323500
     53 H21         -2.4540     0.0730     0.7710 h1         1 5EC       0.196700
     54 H22         -2.3410    -1.0820    -1.4570 hc         1 5EC       0.059200
     55 H23         -2.5200    -2.6280    -0.6180 hc         1 5EC       0.059200
     56 H24         -4.6780    -1.6900     0.4010 hc         1 5EC       0.094700
     57 H25         -4.1640    -1.1440    -3.4610 h1         1 5EC       0.045700
     58 H26         -5.9420    -1.2140    -3.3750 h1         1 5EC       0.045700
     59 H27         -5.9180    -2.5080    -1.4170 hc         1 5EC       0.061200
     60 H28         -4.3040    -2.9870    -2.0230 hc         1 5EC       0.061200
     61 H29         -1.5610    -1.4090     1.7740 ha         1 5EC       0.140000
     62 H31         -3.6270    -0.3840     2.6190 ha         1 5EC       0.072000
     63 H33         -1.6830     2.6270     4.0940 h1         1 5EC       0.052700
     64 H34         -3.3420     2.9110     3.5490 h1         1 5EC       0.052700
     65 H35         -2.4850     2.4820     6.4350 hc         1 5EC       0.049367
     66 H36         -2.8980     4.0420     5.7090 hc         1 5EC       0.049367
     67 H37         -4.1370     2.7900     5.8820 hc         1 5EC       0.049367
     68 C            3.2180     1.1930    -1.2600 c          1 5EC       0.658100
@<TRIPOS>BOND
     1    29    28 2   
     2    28    30 1   
     3    28    27 1   
     4    30    31 1   
     5    32    31 1   
     6    27    26 2   
     7    26    19 1   
     8    20    19 1   
     9    20    21 1   
    10    19    18 1   
    11    23    22 2   
    12    22    21 1   
    13    22     7 1   
    14    21    25 1   
    15    25    24 1   
    16    18    16 1   
    17     7    24 1   
    18    17    16 2   
    19    16     1 1   
    20     2     1 1   
    21     2     3 1   
    22     1    14 1   
    23     4     3 ar  
    24     4     5 ar  
    25     3    15 ar  
    26    13    68 2   
    27    14    68 1   
    28     5     6 ar  
    29    15     8 ar  
    30    68     9 1   
    31     8     6 ar  
    32     9    10 1   
    33    12    10 1   
    34    10    11 1   
    35     1    33 1   
    36     2    34 1   
    37     2    35 1   
    38     4    36 1   
    39     5    37 1   
    40     6    38 1   
    41     7    39 1   
    42     8    40 1   
    43     9    41 1   
    44     9    42 1   
    45    10    43 1   
    46    11    44 1   
    47    11    45 1   
    48    11    46 1   
    49    12    47 1   
    50    12    48 1   
    51    12    49 1   
    52    14    50 1   
    53    15    51 1   
    54    18    52 1   
    55    19    53 1   
    56    20    54 1   
    57    20    55 1   
    58    21    56 1   
    59    24    57 1   
    60    24    58 1   
    61    25    59 1   
    62    25    60 1   
    63    26    61 1   
    64    27    62 1   
    65    31    63 1   
    66    31    64 1   
    67    32    65 1   
    68    32    66 1   
    69    32    67 1   
@<TRIPOS>SUBSTRUCTURE
     1 5EC         1 TEMP              0 ****  ****    0 ROOT
