@<TRIPOS>MOLECULE
molecule
   73    75     1     0     0
SMALL
bcc


@<TRIPOS>ATOM
      1 N1           0.0000     0.0000     0.0000 ns         1 5ED      -0.583900
      2 C4           5.6380    -7.1670     1.3610 ca         1 5ED      -0.074300
      3 C5           5.6390    -8.2130     0.4570 ca         1 5ED      -0.116500
      4 C6           5.9280    -9.4960     0.8830 ca         1 5ED      -0.120500
      5 C7           6.2170    -9.7320     2.2150 ca         1 5ED      -0.125000
      6 C8           6.2170    -8.6870     3.1190 ca         1 5ED      -0.120500
      7 C10          3.6640    -1.7070     1.1160 c3         1 5ED       0.212900
      8 C13          1.3450     0.0000     0.0000 c          1 5ED       0.704500
      9 C17          3.5040    -4.0950     0.6600 c          1 5ED       0.656100
     10 C22          2.0800    -8.5820    -0.4920 c          1 5ED       0.595100
     11 C24         -0.3080   -14.3930    -0.8250 cx         1 5ED      -0.135400
     12 C26          0.6450     0.4190     2.2720 c3         1 5ED      -0.091400
     13 C1           0.1120   -13.0170    -1.3470 cx         1 5ED      -0.138700
     14 C2           3.8100    -5.5290     1.0070 c3         1 5ED       0.047700
     15 C3           5.3180    -5.7700     0.8950 c3         1 5ED      -0.045100
     16 C9           5.9270    -7.4040     2.6910 ca         1 5ED      -0.116500
     17 C11          2.3400    -1.4000     1.8170 c3         1 5ED      -0.090400
     18 C12          1.8650     0.0000     1.4210 c3         1 5ED      -0.159700
     19 C14          4.7340    -0.7830     1.6380 c2         1 5ED      -0.224200
     20 C16          5.6450    -0.5570    -0.6000 c          1 5ED       0.700300
     21 C18          6.4160    -0.3120    -2.8470 c3         1 5ED       0.150400
     22 C23          0.8490   -12.0900    -0.3800 c3         1 5ED      -0.064400
     23 C25         -0.5320    -0.0100     1.3670 c3         1 5ED       0.094000
     24 O3           5.1810    -1.6270    -0.9380 o          1 5ED      -0.553000
     25 O2           6.3010     0.2070    -1.4950 os         1 5ED      -0.421900
     26 C19          7.1860     0.6860    -3.7140 c3         1 5ED      -0.096100
     27 O1           2.0390    -0.0010    -0.9940 o          1 5ED      -0.634500
     28 N            4.0470    -3.0960     1.3830 ns         1 5ED      -0.597900
     29 O4           2.7680    -3.8400    -0.2700 o          1 5ED      -0.583100
     30 N2           3.1050    -6.4180     0.0800 ns         1 5ED      -0.543900
     31 O21          3.1110    -8.0730     1.5570 o          1 5ED      -0.601100
     32 O5           1.7690    -8.1850    -1.5950 o          1 5ED      -0.599100
     33 N6           1.7760    -9.8420    -0.1180 ns         1 5ED      -0.561900
     34 C21          1.0700   -10.7300    -1.0450 c3         1 5ED       0.113000
     35 C27          0.8460   -14.2740    -1.8210 cx         1 5ED      -0.135400
     36 H1          -0.5480    -0.1180    -0.8290 hn         1 5ED       0.340500
     37 H2           5.4130    -8.0270    -0.5860 ha         1 5ED       0.125500
     38 H3           5.9280   -10.3150     0.1750 ha         1 5ED       0.127000
     39 H4           6.4430   -10.7380     2.5500 ha         1 5ED       0.125000
     40 H5           6.4430    -8.8720     4.1620 ha         1 5ED       0.127000
     41 H6           3.5510    -1.5620     0.0490 h1         1 5ED       0.156700
     42 H7           4.7740     0.3240     0.0920 ha         1 5ED       0.084000
     43 H10         -0.0230   -14.6130     0.1970 hc         1 5ED       0.074700
     44 H11          0.6270    -0.1210     3.2110 hc         1 5ED       0.061200
     45 H12          0.6370     1.4900     2.4320 hc         1 5ED       0.061200
     46 H13         -0.5620   -12.5840    -2.0750 hc         1 5ED       0.085700
     47 H14          3.4860    -5.7330     2.0210 h1         1 5ED       0.094700
     48 H15          5.6270    -5.6530    -0.1360 hc         1 5ED       0.059700
     49 H16          5.8450    -5.0540     1.5140 hc         1 5ED       0.059700
     50 H17          5.9270    -6.5840     3.3990 ha         1 5ED       0.125500
     51 H18          1.5970    -2.1310     1.5200 hc         1 5ED       0.058700
     52 H19          2.4800    -1.4440     2.8900 hc         1 5ED       0.058700
     53 H20          2.6650     0.7220     1.5290 hc         1 5ED       0.089700
     54 H21          5.0570    -1.8060     1.4900 ha         1 5ED       0.127000
     55 H23          5.4260    -0.4620    -3.2610 h1         1 5ED       0.053700
     56 H24          6.9450    -1.2570    -2.8270 h1         1 5ED       0.053700
     57 H25          1.8070   -12.5260    -0.1210 hc         1 5ED       0.050200
     58 H26          0.2570   -11.9610     0.5180 hc         1 5ED       0.050200
     59 H27         -1.3480     0.6970     1.4560 h1         1 5ED       0.046200
     60 H28         -0.8620    -1.0080     1.6320 h1         1 5ED       0.046200
     61 H29          7.2560     0.3060    -4.7260 hc         1 5ED       0.049367
     62 H30          8.1810     0.8220    -3.3090 hc         1 5ED       0.049367
     63 H31          6.6650     1.6360    -3.7200 hc         1 5ED       0.049367
     64 H32          4.6700    -3.3070     2.1380 hn         1 5ED       0.323500
     65 H33          2.8130    -6.0770    -0.8150 hn         1 5ED       0.359500
     66 H34          1.9880   -10.1530     0.8090 hn         1 5ED       0.335500
     67 H35          1.6620   -10.8590    -1.9430 h1         1 5ED       0.057200
     68 H36          0.1120   -10.2950    -1.3040 h1         1 5ED       0.057200
     69 H37          1.8370   -14.4200    -1.4090 hc         1 5ED       0.074700
     70 H38          0.6250   -14.5900    -2.8330 hc         1 5ED       0.074700
     71 C15          5.4920    -0.0940     0.7870 ce         1 5ED      -0.181200
     72 C20          2.8000    -7.6760     0.4540 c          1 5ED       0.594100
     73 H9          -1.2350   -14.7830    -1.2280 hc         1 5ED       0.074700
@<TRIPOS>BOND
     1    24    20 2
     2    20    25 1
     3    20    71 1
     4    25    21 1
     5    71    19 2
     6    19     7 1
     7    21    26 1
     8    17     7 1
     9    17    18 1
    10     7    28 1
    11    27     8 2
    12     8    18 1
    13     8     1 1
    14    28     9 1
    15    18    12 1
    16    12    23 1
    17     1    23 1
    18    29     9 2
    19     9    14 1
    20    15    14 1
    21    15     2 1
    22    14    30 1
    23     2     3 ar
    24     2    16 ar
    25     3     4 ar
    26    31    72 2
    27    30    72 1
    28    16     6 ar
    29    72    10 1
    30     4     5 ar
    31     6     5 ar
    32    10    32 2
    33    10    33 1
    34    34    33 1
    35    34    22 1
    36    22    13 1
    37    35    13 1
    38    35    11 1
    39    13    11 1
    40     1    36 1
    41     3    37 1
    42     4    38 1
    43     5    39 1
    44     6    40 1
    45     7    41 1
    46    71    42 1
    47    11    73 1
    48    11    43 1
    49    12    44 1
    50    12    45 1
    51    13    46 1
    52    14    47 1
    53    15    48 1
    54    15    49 1
    55    16    50 1
    56    17    51 1
    57    17    52 1
    58    18    53 1
    59    19    54 1
    60    21    55 1
    61    21    56 1
    62    22    57 1
    63    22    58 1
    64    23    59 1
    65    23    60 1
    66    26    61 1
    67    26    62 1
    68    26    63 1
    69    28    64 1
    70    30    65 1
    71    33    66 1
    72    34    67 1
    73    34    68 1
    74    35    69 1
    75    35    70 1
@<TRIPOS>SUBSTRUCTURE
     1 5ED         1 TEMP              0 ****  ****    0 ROOT
