@<TRIPOS>MOLECULE
5ED
   73    75     1     0     0
SMALL
bcc


@<TRIPOS>ATOM
      1 N1           0.0000     0.0000     0.0000 ns         1 5ED      -0.199900
      2 C4           5.6380    -7.1670     1.3610 ca         1 5ED      -0.081300
      3 C5           5.6390    -8.2130     0.4570 ca         1 5ED      -0.091500
      4 C6           5.9280    -9.4960     0.8830 ca         1 5ED      -0.093000
      5 C7           6.2170    -9.7320     2.2150 ca         1 5ED      -0.099000
      6 C8           6.2170    -8.6870     3.1190 ca         1 5ED      -0.093000
      7 C10          3.6640    -1.7070     1.1160 c3         1 5ED       0.007900
      8 C13          1.3450     0.0000     0.0000 c          1 5ED       0.625500
      9 C17          3.5040    -4.0950     0.6600 c          1 5ED       0.563100
     10 C22          2.0800    -8.5820    -0.4920 c          1 5ED       0.502100
     11 C24         -0.3080   -14.3930    -0.8250 cx         1 5ED      -0.079400
     12 C26          0.6450     0.4190     2.2720 c3         1 5ED      -0.030400
     13 C1           0.1120   -13.0170    -1.3470 cx         1 5ED      -0.113700
     14 C2           3.8100    -5.5290     1.0070 c3         1 5ED      -0.061300
     15 C3           5.3180    -5.7700     0.8950 c3         1 5ED       0.021900
     16 C9           5.9270    -7.4040     2.6910 ca         1 5ED      -0.091500
     17 C11          2.3400    -1.4000     1.8170 c3         1 5ED      -0.027400
     18 C12          1.8650     0.0000     1.4210 c3         1 5ED      -0.141700
     19 C14          4.7340    -0.7830     1.6380 c2         1 5ED      -0.094200
     20 C16          5.6450    -0.5570    -0.6000 c          1 5ED       0.700300
     21 C18          6.4160    -0.3120    -2.8470 c3         1 5ED       0.225400
     22 C23          0.8490   -12.0900    -0.3800 c3         1 5ED       0.000600
     23 C25         -0.5320    -0.0100     1.3670 c3         1 5ED       0.042000
     24 O3           5.1810    -1.6270    -0.9380 o          1 5ED      -0.573000
     25 O2           6.3010     0.2070    -1.4950 os         1 5ED      -0.410900
     26 C19          7.1860     0.6860    -3.7140 c3         1 5ED      -0.003100
     27 O1           2.0390    -0.0010    -0.9940 o          1 5ED      -0.658500
     28 N            4.0470    -3.0960     1.3830 ns         1 5ED      -0.156900
     29 O4           2.7680    -3.8400    -0.2700 o          1 5ED      -0.631100
     30 N2           3.1050    -6.4180     0.0800 ns         1 5ED      -0.129900
     31 O21          3.1110    -8.0730     1.5570 o          1 5ED      -0.658100
     32 O5           1.7690    -8.1850    -1.5950 o          1 5ED      -0.647100
     33 N6           1.7760    -9.8420    -0.1180 ns         1 5ED      -0.161900
     34 C21          1.0700   -10.7300    -1.0450 c3         1 5ED       0.043000
     35 C27          0.8460   -14.2740    -1.8210 cx         1 5ED      -0.079400
     36 H1          -0.5480    -0.1180    -0.8290 hn         1 5ED       0.196500
     37 H2           5.4130    -8.0270    -0.5860 ha         1 5ED       0.101000
     38 H3           5.9280   -10.3150     0.1750 ha         1 5ED       0.098500
     39 H4           6.4430   -10.7380     2.5500 ha         1 5ED       0.098000
     40 H5           6.4430    -8.8720     4.1620 ha         1 5ED       0.098500
     41 H6           3.5510    -1.5620     0.0490 h1         1 5ED       0.133700
     42 H7           6.2470     0.5720     1.1860 ha         1 5ED       0.112000
     43 H10         -1.2350   -14.7830    -1.2280 hc         1 5ED       0.045450
     44 H11          0.6370     1.4900     2.4320 hc         1 5ED       0.028200
     45 H12          0.6270    -0.1210     3.2110 hc         1 5ED       0.028200
     46 H13         -0.5620   -12.5840    -2.0750 hc         1 5ED       0.062700
     47 H14          3.4860    -5.7330     2.0210 h1         1 5ED       0.064700
     48 H15          5.8450    -5.0540     1.5140 hc         1 5ED       0.027700
     49 H16          5.6270    -5.6530    -0.1360 hc         1 5ED       0.027700
     50 H17          5.9270    -6.5840     3.3990 ha         1 5ED       0.101000
     51 H18          1.5970    -2.1310     1.5200 hc         1 5ED       0.026200
     52 H19          2.4800    -1.4440     2.8900 hc         1 5ED       0.026200
     53 H20          2.6650     0.7220     1.5280 hc         1 5ED       0.053700
     54 H21          4.6440    -0.4290     2.6580 ha         1 5ED       0.102000
     55 H23          5.4260    -0.4620    -3.2610 h1         1 5ED       0.012700
     56 H24          6.9450    -1.2570    -2.8270 h1         1 5ED       0.012700
     57 H25          0.2570   -11.9610     0.5180 hc         1 5ED       0.019700
     58 H26          1.8070   -12.5260    -0.1210 hc         1 5ED       0.019700
     59 H27         -0.8620    -1.0080     1.6320 h1         1 5ED       0.014700
     60 H28         -1.3480     0.6970     1.4560 h1         1 5ED       0.014700
     61 H29          7.2580     0.3050    -4.7250 hc         1 5ED       0.009700
     62 H30          6.6640     1.6350    -3.7220 hc         1 5ED       0.009700
     63 H31          8.1800     0.8250    -3.3080 hc         1 5ED       0.009700
     64 H32          4.6760    -3.3060     2.1320 hn         1 5ED       0.169500
     65 H33          2.8110    -6.0760    -0.8140 hn         1 5ED       0.220500
     66 H34          1.9880   -10.1530     0.8090 hn         1 5ED       0.194500
     67 H35          1.6620   -10.8590    -1.9430 h1         1 5ED       0.029200
     68 H36          0.1120   -10.2950    -1.3040 h1         1 5ED       0.029200
     69 H37          0.6250   -14.5900    -2.8330 hc         1 5ED       0.045450
     70 H38          1.8370   -14.4200    -1.4090 hc         1 5ED       0.045450
     71 C15          5.4920    -0.0940     0.7870 ce         1 5ED      -0.159200
     72 C20          2.8000    -7.6760     0.4540 c          1 5ED       0.499100
     73 H9          -0.0230   -14.6130     0.1970 hc         1 5ED       0.045450
@<TRIPOS>BOND
     1     1     8 1   
     2     1    23 1   
     3     1    36 1   
     4     2     3 ar  
     5     2    15 1   
     6     2    16 ar  
     7     3     4 ar  
     8     3    37 1   
     9     4     5 ar  
    10     4    38 1   
    11     5     6 ar  
    12     5    39 1   
    13     6    16 ar  
    14     6    40 1   
    15     7    17 1   
    16     7    19 1   
    17     7    28 1   
    18     7    41 1   
    19     8    18 1   
    20     8    27 2   
    21     9    14 1   
    22     9    28 1   
    23     9    29 2   
    24    10    32 2   
    25    10    33 1   
    26    10    72 1   
    27    11    13 1   
    28    11    35 1   
    29    11    43 1   
    30    11    73 1   
    31    12    18 1   
    32    12    23 1   
    33    12    44 1   
    34    12    45 1   
    35    13    22 1   
    36    13    35 1   
    37    13    46 1   
    38    14    15 1   
    39    14    30 1   
    40    14    47 1   
    41    15    48 1   
    42    15    49 1   
    43    16    50 1   
    44    17    18 1   
    45    17    51 1   
    46    17    52 1   
    47    18    53 1   
    48    19    54 1   
    49    19    71 2   
    50    20    24 2   
    51    20    25 1   
    52    20    71 1   
    53    21    25 1   
    54    21    26 1   
    55    21    55 1   
    56    21    56 1   
    57    22    34 1   
    58    22    57 1   
    59    22    58 1   
    60    23    59 1   
    61    23    60 1   
    62    26    61 1   
    63    26    62 1   
    64    26    63 1   
    65    28    64 1   
    66    30    65 1   
    67    30    72 1   
    68    31    72 2   
    69    33    34 1   
    70    33    66 1   
    71    34    67 1   
    72    34    68 1   
    73    35    69 1   
    74    35    70 1   
    75    42    71 1   
@<TRIPOS>SUBSTRUCTURE
     1 5ED         1 TEMP              0 ****  ****    0 ROOT
