@<TRIPOS>MOLECULE
5EE
   35    37     1     0     0
SMALL
bcc


@<TRIPOS>ATOM
      1 S19          0.0000     0.0000     0.0000 sy         1 5EE       1.084200
      2 O20          1.4210     0.0000     0.0000 o          1 5EE      -0.541300
      3 O21         -0.8220     0.0000     1.1580 o          1 5EE      -0.541300
      4 N22         -0.4490     1.3350    -0.8710 n7         1 5EE      -0.443100
      5 C24         -0.4780    -1.4200    -0.9280 cc         1 5EE      -0.039600
      6 S3          -2.0150    -2.3260    -0.8840 ss         1 5EE      -0.262800
      7 C27         -1.6150    -3.5600    -2.1110 cc         1 5EE       0.097900
      8 C29         -0.3570    -3.2050    -2.4660 cd         1 5EE      -0.184000
      9 C30          0.2250    -2.1050    -1.8640 cd         1 5EE       0.030000
     10 C1          -4.5230    -0.0100    -2.6800 c3         1 5EE       0.055900
     11 C2          -5.9680     0.2970    -2.9820 ca         1 5EE      -0.106300
     12 C4          -6.4000     0.3630    -4.2930 ca         1 5EE      -0.084000
     13 C5          -7.7240     0.6440    -4.5710 ca         1 5EE      -0.088000
     14 C6          -8.1830     0.7990    -2.2240 ca         1 5EE      -0.039600
     15 C8          -8.6180     0.8590    -3.5380 ca         1 5EE      -0.036600
     16 Cl1        -10.2820     1.2100    -3.8870 cl         1 5EE       0.003600
     17 N1          -1.7970     1.5400    -1.1920 n          1 5EE       0.116200
     18 C9          -2.5590     2.2400    -0.3330 cs         1 5EE       0.339000
     19 C14         -3.7290     1.2970    -2.6070 c3         1 5EE      -0.013600
     20 C7          -2.2560     1.0340    -2.3270 c          1 5EE       0.583500
     21 C3          -6.8580     0.5110    -1.9480 ca         1 5EE      -0.075000
     22 S1          -4.1700     2.2630    -1.1080 ss         1 5EE      -0.244700
     23 S2          -2.0960     2.9430     1.1580 s          1 5EE      -0.369400
     24 O1          -1.5530     0.4060    -3.0890 o          1 5EE      -0.591500
     25 Cl2         -9.3030     1.0690    -0.9260 cl         1 5EE       0.009600
     26 H22          0.2370     2.0130    -1.1370 hn         1 5EE       0.375800
     27 H27         -2.2200    -4.3810    -2.4750 h4         1 5EE       0.162000
     28 H29          0.1830    -3.7710    -3.2150 ha         1 5EE       0.123000
     29 H30          1.2290    -1.7990    -2.1300 ha         1 5EE       0.125000
     30 H11         -4.4540    -0.5270    -1.7300 hc         1 5EE       0.044700
     31 H12         -4.1150    -0.6370    -3.4630 hc         1 5EE       0.044700
     32 H4          -5.7000     0.1940    -5.1030 ha         1 5EE       0.111000
     33 H5          -8.0630     0.6930    -5.5990 ha         1 5EE       0.119000
     34 H14         -3.8540     1.8920    -3.5040 h1         1 5EE       0.098700
     35 H3          -6.5170     0.4640    -0.9200 ha         1 5EE       0.135000
@<TRIPOS>BOND
     1     1     2 2   
     2     1     3 2   
     3     1     4 1   
     4     1     5 1   
     5     4    17 1   
     6     4    26 1   
     7     5     6 1   
     8     5     9 2   
     9     6     7 1   
    10     7     8 2   
    11     7    27 1   
    12     8     9 1   
    13     8    28 1   
    14     9    29 1   
    15    10    11 1   
    16    10    19 1   
    17    10    30 1   
    18    10    31 1   
    19    11    12 ar  
    20    11    21 ar  
    21    12    13 ar  
    22    12    32 1   
    23    13    15 ar  
    24    13    33 1   
    25    14    15 ar  
    26    14    21 ar  
    27    14    25 1   
    28    15    16 1   
    29    17    18 1   
    30    17    20 1   
    31    18    22 1   
    32    18    23 2   
    33    19    20 1   
    34    19    22 1   
    35    19    34 1   
    36    20    24 2   
    37    21    35 1   
@<TRIPOS>SUBSTRUCTURE
     1 5EE         1 TEMP              0 ****  ****    0 ROOT
