@<TRIPOS>MOLECULE
molecule
   47    49     1     0     0
SMALL
bcc


@<TRIPOS>ATOM
      1 O19          0.0000     0.0000     0.0000 oh         1 5EF      -0.594800
      2 C17          1.9390     0.0000     1.4430 c3         1 5EF      -0.193600
      3 C6           4.9420    -0.8740     5.1860 ca         1 5EF       0.169900
      4 F11          5.3440    -1.9680     5.8700 f          1 5EF      -0.088900
      5 C5           4.8820     0.3540     5.8220 ca         1 5EF      -0.370500
      6 S14          3.7520    -0.0010     1.4440 sy         1 5EF       1.185300
      7 O15          4.2510    -1.2740     1.0550 o          1 5EF      -0.582300
      8 C18          1.4290     0.0000     0.0000 c3         1 5EF       0.169400
      9 C8           4.1910     0.1370     3.1450 ca         1 5EF      -0.226500
     10 C7           4.5970    -0.9820     3.8480 ca         1 5EF       0.194900
     11 C9           4.1190     1.3680     3.7820 ca         1 5EF       0.214600
     12 C10          4.4720     1.4750     5.1230 ca         1 5EF       0.177900
     13 O3           5.1580    -0.8040     8.0840 o          1 5EF      -0.491800
     14 N4           6.9500     0.8170     7.5770 nz         1 5EF      -0.811500
     15 O2           4.6670     1.6470     8.0180 o          1 5EF      -0.491800
     16 N20          3.6990     2.5000     3.0750 nu         1 5EF      -0.808600
     17 C21          4.8400     3.1900     2.4590 c3         1 5EF       0.277800
     18 C25          4.3780     3.9910     1.2230 c3         1 5EF      -0.054400
     19 C24          4.0890     5.3850     1.8210 c3         1 5EF      -0.049100
     20 C23          4.9750     5.4830     3.0440 ca         1 5EF      -0.066300
     21 C29          5.3720     6.5880     3.7780 ca         1 5EF      -0.104000
     22 C28          6.1980     6.4350     4.8740 ca         1 5EF      -0.098000
     23 C27          6.6300     5.1730     5.2410 ca         1 5EF      -0.141000
     24 C26          6.2340     4.0700     4.5100 ca         1 5EF      -0.116000
     25 C22          5.4080     4.2200     3.4110 ca         1 5EF      -0.156300
     26 H1          -0.3140    -0.1200    -0.8810 ho         1 5EF       0.422000
     27 H2           1.5780     0.8850     1.9540 h1         1 5EF       0.116200
     28 H3           1.5770    -0.8840     1.9540 h1         1 5EF       0.116200
     29 H4           1.7900     0.8850    -0.5110 h1         1 5EF       0.039700
     30 H5           1.7900    -0.8850    -0.5110 h1         1 5EF       0.039700
     31 H6           7.4080     0.3640     6.8110 hn         1 5EF       0.496467
     32 H7           7.3330     0.4830     8.4390 hn         1 5EF       0.496467
     33 H8           2.9100     3.0260     3.3940 hn         1 5EF       0.452800
     34 H9           5.6080     2.4790     2.1770 h1         1 5EF       0.083700
     35 H10          5.1830     4.0560     0.5000 hc         1 5EF       0.078200
     36 H11          3.4680     3.5630     0.8210 hc         1 5EF       0.078200
     37 H12          4.2450     6.1940     1.1180 hc         1 5EF       0.067700
     38 H13          3.1090     5.3210     2.2780 hc         1 5EF       0.067700
     39 H14          5.0340     7.5760     3.4920 ha         1 5EF       0.147000
     40 H15          6.5070     7.3010     5.4460 ha         1 5EF       0.145000
     41 H16          7.2780     5.0500     6.1000 ha         1 5EF       0.118000
     42 H17          6.5740     3.0830     4.7990 ha         1 5EF       0.076000
     43 F12          4.6570    -2.1830     3.2310 f          1 5EF      -0.057900
     44 F13          4.4130     2.6750     5.7440 f          1 5EF      -0.086900
     45 O16          4.2520     1.1910     0.8550 o          1 5EF      -0.582300
     46 H43          7.0910     1.8060     7.5130 hn         1 5EF       0.496467
     47 S1           5.3270     0.4900     7.5210 sy         1 5EF       1.244200
@<TRIPOS>BOND
     1    22    21 ar  
     2    22    23 ar  
     3    21    20 ar  
     4    23    24 ar  
     5    20    19 1   
     6    20    25 ar  
     7     1     8 1   
     8    19    18 1   
     9    24    25 ar  
    10     8     2 1   
    11    25    17 1   
    12    18    17 1   
    13     2     6 1   
    14    17    16 1   
    15     7     6 2   
    16     6     9 1   
    17     6    45 2   
    18    16    11 1   
    19    11     9 ar  
    20    11    12 ar  
    21     9    10 ar  
    22    10    43 1   
    23    10     3 ar  
    24    44    12 1   
    25    12     5 ar  
    26     3     5 ar  
    27     3     4 1   
    28     5    47 1   
    29    14    47 1   
    30    47    13 2   
    31    47    15 2   
    32     1    26 1   
    33     2    27 1   
    34     2    28 1   
    35     8    29 1   
    36     8    30 1   
    37    14    31 1   
    38    14    32 1   
    39    16    33 1   
    40    17    34 1   
    41    18    35 1   
    42    18    36 1   
    43    19    37 1   
    44    19    38 1   
    45    21    39 1   
    46    22    40 1   
    47    23    41 1   
    48    24    42 1   
    49    46    14 1   
@<TRIPOS>SUBSTRUCTURE
     1 5EF         1 TEMP              0 ****  ****    0 ROOT
