@<TRIPOS>MOLECULE
molecule
   44    46     1     0     0
SMALL
bcc


@<TRIPOS>ATOM
      1 C2           0.0000     0.0000     0.0000 c          1 5EG       0.635100
      2 C3           1.5060     0.0000     0.0000 c3         1 5EG      -0.007700
      3 O1          -0.6070     0.0000     1.0500 o          1 5EG      -0.545100
      4 C11          0.5190     4.2770     1.7240 ca         1 5EG       0.141100
      5 C12          1.4770     5.0810     1.1250 ca         1 5EG      -0.219000
      6 C13          1.1770     6.3920     0.8080 ca         1 5EG      -0.089000
      7 C14         -0.0770     6.9030     1.0890 ca         1 5EG      -0.153000
      8 C15         -1.0340     6.1040     1.6870 ca         1 5EG      -0.085000
      9 C16         -0.7410     4.7910     2.0000 ca         1 5EG       0.004400
     10 C20         -2.7480     0.0180    -2.3360 c          1 5EG       0.788100
     11 C23         -2.7710    -0.0750    -4.7130 ca         1 5EG       0.064600
     12 C24         -4.0110     0.5360    -4.8510 ca         1 5EG      -0.135000
     13 C25         -4.6930     0.4480    -6.0480 ca         1 5EG      -0.104500
     14 C26         -4.1430    -0.2480    -7.1100 ca         1 5EG       0.015400
     15 C28         -2.9070    -0.8560    -6.9760 ca         1 5EG      -0.104500
     16 C29         -2.2210    -0.7720    -5.7800 ca         1 5EG      -0.135000
     17 N4           1.9950     0.0000     1.3810 na         1 5EG       0.004600
     18 N5           2.2500    -1.0380     2.1040 nc         1 5EG      -0.209800
     19 N6           2.6590    -0.6490     3.2610 nd         1 5EG      -0.021000
     20 N7           2.6720     0.6400     3.2980 nd         1 5EG      -0.350000
     21 C8           2.2660     1.0820     2.1340 cc         1 5EG       0.354800
     22 C9           2.1260     2.5250     1.7190 c3         1 5EG       0.126100
     23 O10          0.8120     2.9870     2.0360 os         1 5EG      -0.300900
     24 Cl1         -1.9420     3.7880     2.7510 cl         1 5EG      -0.076400
     25 N18         -0.6740     0.0060    -1.1680 ns         1 5EG      -0.451500
     26 N19         -2.0760     0.0120    -1.1680 ns         1 5EG      -0.438500
     27 O21         -3.9650     0.0230    -2.3350 o          1 5EG      -0.615100
     28 N22         -2.0740     0.0170    -3.5030 ns         1 5EG      -0.494100
     29 Cl2         -5.0040    -0.3580    -8.6130 cl         1 5EG      -0.106400
     30 H1           1.8670    -0.8850    -0.5110 h1         1 5EG       0.093200
     31 H2           1.8670     0.8840    -0.5110 h1         1 5EG       0.093200
     32 H3           2.4600     4.6820     0.9070 ha         1 5EG       0.134000
     33 H4           1.9260     7.0200     0.3400 ha         1 5EG       0.136000
     34 H5          -0.3090     7.9320     0.8420 ha         1 5EG       0.140000
     35 H6          -2.0160     6.5060     1.9040 ha         1 5EG       0.152000
     36 H7          -4.4420     1.0810    -4.0200 ha         1 5EG       0.154000
     37 H8          -5.6600     0.9230    -6.1560 ha         1 5EG       0.149000
     38 H9          -2.4790    -1.4010    -7.8090 ha         1 5EG       0.149000
     39 H10         -1.2540    -1.2480    -5.6750 ha         1 5EG       0.154000
     40 H11          2.2920     2.6120     0.6520 h1         1 5EG       0.057200
     41 H12          2.8570     3.1250     2.2480 h1         1 5EG       0.057200
     42 H13         -0.1740    -0.0130    -2.0340 hn         1 5EG       0.333500
     43 H14         -2.5760    -0.0300    -0.3020 hn         1 5EG       0.398500
     44 H15         -1.0790     0.1170    -3.5050 hn         1 5EG       0.309500
@<TRIPOS>BOND
     1    29    14 1
     2    13    14 ar
     3    13    12 ar
     4    14    15 ar
     5    12    11 ar
     6    15    16 ar
     7    11    16 ar
     8    11    28 1
     9    28    10 1
    10    24     9 1
    11     8     9 ar
    12     8     7 ar
    13    10    27 2
    14    10    26 1
    15     9     4 ar
    16    26    25 1
    17     7     6 ar
    18     4    23 1
    19     4     5 ar
    20     2    17 1
    21     2     1 1
    22    23    22 1
    23    25     1 1
    24     6     5 ar
    25    17    18 1
    26    17    21 1
    27    18    19 2
    28     1     3 2
    29    21    22 1
    30    21    20 2
    31    19    20 1
    32     2    30 1
    33     2    31 1
    34     5    32 1
    35     6    33 1
    36     7    34 1
    37     8    35 1
    38    12    36 1
    39    13    37 1
    40    15    38 1
    41    16    39 1
    42    22    40 1
    43    22    41 1
    44    25    42 1
    45    26    43 1
    46    28    44 1
@<TRIPOS>SUBSTRUCTURE
     1 5EG         1 TEMP              0 ****  ****    0 ROOT
