@<TRIPOS>MOLECULE
5EH
   42    44     1     0     0
SMALL
bcc


@<TRIPOS>ATOM
      1 C01          0.0000     0.0000     0.0000 c3         1 5EH       0.181100
      2 N02          1.4700     0.0000     0.0000 n3         1 5EH      -0.549600
      3 C03          1.9960     0.0000     1.3710 c3         1 5EH       0.181100
      4 C04          1.9950    -1.1380    -0.7660 c3         1 5EH       0.157800
      5 C05          1.6310    -0.9710    -2.2430 c3         1 5EH      -0.024200
      6 C06          2.1720    -2.1380    -3.0280 c2         1 5EH      -0.128200
      7 C07          1.3560    -2.8470    -3.8200 ce         1 5EH      -0.014400
      8 C08         -0.0260    -2.3700    -4.0580 ca         1 5EH      -0.012800
      9 C09         -0.1800    -0.9950    -4.2870 ca         1 5EH      -0.106000
     10 C10         -1.4240    -0.4540    -4.5140 ca         1 5EH      -0.103000
     11 C11         -2.5350    -1.2800    -4.5160 ca         1 5EH      -0.098000
     12 C12         -2.3880    -2.6310    -4.2940 ca         1 5EH      -0.107000
     13 C13         -1.1350    -3.1970    -4.0640 ca         1 5EH      -0.120300
     14 C14         -1.1380    -4.6870    -3.8460 c3         1 5EH       0.291700
     15 O15          0.0700    -5.2170    -3.3650 os         1 5EH      -0.325900
     16 C16          1.1630    -5.2630    -4.1520 ca         1 5EH       0.134100
     17 C17          1.6080    -6.4670    -4.6810 ca         1 5EH      -0.122000
     18 C18          2.7130    -6.4820    -5.5120 ca         1 5EH      -0.088000
     19 C19          3.3810    -5.3110    -5.8220 ca         1 5EH      -0.114000
     20 C20          2.9540    -4.1070    -5.2900 ca         1 5EH      -0.074000
     21 C21          1.8530    -4.0910    -4.4520 ca         1 5EH      -0.074800
     22 H01         -0.3610    -1.0210    -0.0110 h1         1 5EH       0.001533
     23 H01A        -0.3610     0.5210    -0.8790 h1         1 5EH       0.001533
     24 H01B        -0.3610     0.5010     0.8900 h1         1 5EH       0.001533
     25 H03          1.6470    -0.8840     1.8920 h1         1 5EH       0.001533
     26 H03A         3.0790    -0.0010     1.3420 h1         1 5EH       0.001533
     27 H03B         1.6500     0.8850     1.8910 h1         1 5EH       0.001533
     28 H04          1.5630    -2.0580    -0.3890 h1         1 5EH       0.011200
     29 H04A         3.0730    -1.1770    -0.6610 h1         1 5EH       0.011200
     30 H05          0.5540    -0.9340    -2.3470 hc         1 5EH       0.040700
     31 H05A         2.0630    -0.0520    -2.6190 hc         1 5EH       0.040700
     32 H06          3.2270    -2.3780    -2.9850 ha         1 5EH       0.110000
     33 H09          0.6910    -0.3510    -4.2850 ha         1 5EH       0.121000
     34 H10         -1.5340     0.6100    -4.6880 ha         1 5EH       0.105000
     35 H11         -3.5190    -0.8640    -4.6940 ha         1 5EH       0.103000
     36 H12         -3.2650    -3.2670    -4.2980 ha         1 5EH       0.103000
     37 H14         -1.3490    -5.1590    -4.7980 h1         1 5EH       0.016200
     38 H14A        -1.9090    -4.9120    -3.1180 h1         1 5EH       0.016200
     39 H17          1.0920    -7.3900    -4.4450 ha         1 5EH       0.114000
     40 H18          3.0540    -7.4200    -5.9320 ha         1 5EH       0.102000
     41 H19          4.2460    -5.3370    -6.4740 ha         1 5EH       0.104000
     42 H20          3.4740    -3.1870    -5.5290 ha         1 5EH       0.109000
@<TRIPOS>BOND
     1     1     2 1   
     2     1    22 1   
     3     1    23 1   
     4     1    24 1   
     5     2     3 1   
     6     2     4 1   
     7     3    25 1   
     8     3    26 1   
     9     3    27 1   
    10     4     5 1   
    11     4    28 1   
    12     4    29 1   
    13     5     6 1   
    14     5    30 1   
    15     5    31 1   
    16     6     7 2   
    17     6    32 1   
    18     7     8 1   
    19     7    21 1   
    20     8     9 ar  
    21     8    13 ar  
    22     9    10 ar  
    23     9    33 1   
    24    10    11 ar  
    25    10    34 1   
    26    11    12 ar  
    27    11    35 1   
    28    12    13 ar  
    29    12    36 1   
    30    13    14 1   
    31    14    15 1   
    32    14    37 1   
    33    14    38 1   
    34    15    16 1   
    35    16    17 ar  
    36    16    21 ar  
    37    17    18 ar  
    38    17    39 1   
    39    18    19 ar  
    40    18    40 1   
    41    19    20 ar  
    42    19    41 1   
    43    20    21 ar  
    44    20    42 1   
@<TRIPOS>SUBSTRUCTURE
     1 5EH         1 TEMP              0 ****  ****    0 ROOT
