@<TRIPOS>MOLECULE
5EK
   54    58     1     0     0
SMALL
bcc


@<TRIPOS>ATOM
      1 C2           0.0000     0.0000     0.0000 c          1 5EK       0.555100
      2 C3           1.5070     0.0000     0.0000 c3         1 5EK      -0.077700
      3 O1          -0.6060     0.0000     1.0490 o          1 5EK      -0.606100
      4 C11         -2.7470     0.0150    -2.3360 c          1 5EK       0.571100
      5 C14         -2.7690     0.1180    -4.7130 ca         1 5EK      -0.063400
      6 C15         -2.2170     0.8290    -5.7650 ca         1 5EK      -0.137000
      7 C16         -2.9080     0.9310    -6.9660 ca         1 5EK      -0.198200
      8 C17         -4.1620     0.3060    -7.0980 ca         1 5EK      -0.107800
      9 C18         -4.7020    -0.4090    -6.0270 ca         1 5EK      -0.024000
     10 C19         -4.0090    -0.5040    -4.8540 ca         1 5EK      -0.129000
     11 C20         -4.6200     0.5960    -8.4590 cc         1 5EK      -0.148200
     12 C21         -3.6690     1.3410    -9.0440 cd         1 5EK      -0.260100
     13 C23         -1.4790     2.2890    -8.4480 ca         1 5EK      -0.165200
     14 C24          2.3520     2.4890     1.6920 ca         1 5EK      -0.132500
     15 C25          2.9210     2.8530     0.4720 ca         1 5EK      -0.098000
     16 C26          2.9010     4.1740     0.0720 ca         1 5EK      -0.103000
     17 C27          2.3190     5.1360     0.8780 ca         1 5EK      -0.072000
     18 C28          1.7530     4.7820     2.0880 ca         1 5EK      -0.097000
     19 C29          1.7660     3.4640     2.5010 ca         1 5EK      -0.002600
     20 N4           1.9950     0.0010     1.3820 na         1 5EK       0.359600
     21 N5           2.1870    -1.1110     2.2200 nc         1 5EK      -0.377800
     22 N6           2.6270    -0.6600     3.3440 nd         1 5EK       0.039000
     23 N7           2.7320     0.6180     3.3040 nd         1 5EK      -0.374000
     24 C8           2.3640     1.0740     2.1250 cc         1 5EK       0.318000
     25 N9          -0.6730     0.0050    -1.1680 ns         1 5EK      -0.157500
     26 N10         -2.0740     0.0100    -1.1680 ns         1 5EK      -0.179500
     27 O12         -3.9640     0.0200    -2.3360 o          1 5EK      -0.659100
     28 N13         -2.0740     0.0150    -3.5020 ns         1 5EK      -0.058100
     29 N22         -2.6360     1.5530    -8.1670 na         1 5EK       0.501500
     30 Cl3          1.0550     3.0220     4.0220 cl         1 5EK       0.035600
     31 C31         -0.2420     1.6560    -8.4830 ca         1 5EK      -0.038600
     32 C32          0.8980     2.3860    -8.7660 ca         1 5EK      -0.096000
     33 C33          0.8070     3.7420    -9.0160 ca         1 5EK      -0.080000
     34 C34         -0.4220     4.3750    -8.9820 ca         1 5EK      -0.093000
     35 C35         -1.5650     3.6520    -8.6990 ca         1 5EK      -0.078000
     36 Cl6         -0.1270    -0.0470    -8.1690 cl         1 5EK       0.003600
     37 H1           1.8680    -0.8850    -0.5100 h1         1 5EK       0.058200
     38 H2           1.8680     0.8840    -0.5110 h1         1 5EK       0.058200
     39 H3          -1.2530     1.3100    -5.6500 ha         1 5EK       0.104000
     40 H4          -5.6650    -0.8950    -6.1290 ha         1 5EK       0.105000
     41 H5          -4.4300    -1.0570    -4.0230 ha         1 5EK       0.147000
     42 H6          -5.5510     0.2710    -8.9090 ha         1 5EK       0.131000
     43 H7          -3.7110     1.7180   -10.0580 h4         1 5EK       0.143000
     44 H8           3.3770     2.1010    -0.1600 ha         1 5EK       0.103000
     45 H9           3.3430     4.4570    -0.8760 ha         1 5EK       0.108000
     46 H10          2.3070     6.1710     0.5580 ha         1 5EK       0.109000
     47 H11          1.2990     5.5410     2.7150 ha         1 5EK       0.121000
     48 H12         -0.1730    -0.0360    -2.0340 hn         1 5EK       0.190500
     49 H13         -2.5750    -0.0230    -0.3020 hn         1 5EK       0.245500
     50 H14         -1.0780    -0.0890    -3.5050 hn         1 5EK       0.151500
     51 H15          1.8630     1.8940    -8.7930 ha         1 5EK       0.118000
     52 H16          1.7020     4.3120    -9.2380 ha         1 5EK       0.109000
     53 H17         -0.4900     5.4380    -9.1780 ha         1 5EK       0.111000
     54 H18         -2.5270     4.1480    -8.6730 ha         1 5EK       0.120000
@<TRIPOS>BOND
     1     1     2 1   
     2     1     3 2   
     3     1    25 1   
     4     2    20 1   
     5     2    37 1   
     6     2    38 1   
     7     4    26 1   
     8     4    27 2   
     9     4    28 1   
    10     5     6 ar  
    11     5    10 ar  
    12     5    28 1   
    13     6     7 ar  
    14     6    39 1   
    15     7     8 ar  
    16     7    29 1   
    17     8     9 ar  
    18     8    11 1   
    19     9    10 ar  
    20     9    40 1   
    21    10    41 1   
    22    11    12 2   
    23    11    42 1   
    24    12    29 1   
    25    12    43 1   
    26    13    29 1   
    27    13    31 ar  
    28    13    35 ar  
    29    14    15 ar  
    30    14    19 ar  
    31    14    24 1   
    32    15    16 ar  
    33    15    44 1   
    34    16    17 ar  
    35    16    45 1   
    36    17    18 ar  
    37    17    46 1   
    38    18    19 ar  
    39    18    47 1   
    40    19    30 1   
    41    20    21 1   
    42    20    24 1   
    43    21    22 2   
    44    22    23 1   
    45    23    24 2   
    46    25    26 1   
    47    25    48 1   
    48    26    49 1   
    49    28    50 1   
    50    31    32 ar  
    51    31    36 1   
    52    32    33 ar  
    53    32    51 1   
    54    33    34 ar  
    55    33    52 1   
    56    34    35 ar  
    57    34    53 1   
    58    35    54 1   
@<TRIPOS>SUBSTRUCTURE
     1 5EK         1 TEMP              0 ****  ****    0 ROOT
