@<TRIPOS>MOLECULE
molecule
   61    65     1     0     0
SMALL
bcc


@<TRIPOS>ATOM
      1 C1           0.0000     0.0000     0.0000 ca         1 5EL      -0.099500
      2 C2           1.3780     0.0000     0.0000 ca         1 5EL      -0.141000
      3 C3           2.0750     0.0000     1.2010 ca         1 5EL       0.078100
      4 C4           1.3850    -0.0000     2.4070 ca         1 5EL      -0.141000
      5 C5           0.0070    -0.0010     2.4150 ca         1 5EL      -0.099500
      6 C6          -0.6970     0.0000     1.2100 ca         1 5EL       0.061000
      7 C7          -2.1280     0.0010     1.2140 cg         1 5EL      -0.134000
      8 C8          -3.3020    -0.0130     1.2340 c1         1 5EL      -0.098100
      9 C9          -4.7920     0.2470     0.9380 c3         1 5EL       0.155900
     10 C10         -5.1210     0.7550     2.3650 c3         1 5EL       0.188800
     11 N1          -5.7680     2.0140     2.2600 n3         1 5EL      -0.717600
     12 C11         -6.8820     2.3540     1.2010 c3         1 5EL       0.191800
     13 C12         -6.2910     2.0230    -0.1070 c3         1 5EL      -0.169900
     14 C13         -4.7510     1.5940     0.0710 c3         1 5EL      -0.048700
     15 C14         -4.0230     2.5910     0.6560 c3         1 5EL      -0.169900
     16 C15         -5.0090     3.1080     2.1550 c3         1 5EL       0.191800
     17 O1          -5.3880    -0.8910     0.4120 oh         1 5EL      -0.544800
     18 O2           3.6610    -0.5220     0.9760 os         1 5EL      -0.283200
     19 C16          4.1240     0.9560     1.0840 ca         1 5EL       0.085100
     20 C17          4.1460     1.6060     2.1660 ca         1 5EL      -0.165500
     21 C18          5.0510     2.7440     2.4610 ca         1 5EL      -0.092500
     22 C19          5.7300     2.9110     1.4940 ca         1 5EL      -0.019600
     23 C20          5.9790     2.5900     0.4790 ca         1 5EL      -0.092500
     24 C21          4.9580     1.2940     0.1270 ca         1 5EL      -0.165500
     25 C22          6.8880     4.1360     1.9440 c          1 5EL       0.617700
     26 O3           6.8510     4.9280     2.8360 o          1 5EL      -0.539100
     27 N2           7.7150     4.3660     0.9110 ns         1 5EL      -0.734900
     28 C23          9.3720     3.8400     1.2920 c3         1 5EL       0.149300
     29 C24         10.1600     4.7450     0.7350 ca         1 5EL      -0.122300
     30 C25         10.6420     5.6000     1.6680 ca         1 5EL      -0.213300
     31 C26         11.6970     6.9050     1.3160 ca         1 5EL       0.383700
     32 N3          12.0380     7.0550     0.0510 nb         1 5EL      -0.646000
     33 C27         11.4250     6.0320    -0.8630 ca         1 5EL       0.383700
     34 C28         10.7480     5.1910    -0.6490 ca         1 5EL      -0.213300
     35 H1          -0.4010     0.0140    -1.0060 ha         1 5EL       0.150500
     36 H2           1.8140     0.2010    -0.9710 ha         1 5EL       0.146000
     37 H4           2.0360    -0.1240     3.2640 ha         1 5EL       0.146000
     38 H5          -0.2230     0.0380     3.4730 ha         1 5EL       0.150500
     39 H101        -4.4190     0.3020     3.0540 h1         1 5EL       0.074200
     40 H102        -5.9770     0.1120     2.5290 h1         1 5EL       0.074200
     41 H13         -4.6230     1.1950    -0.9270 hc         1 5EL       0.060700
     42 HA          -6.3040    -0.7030     0.2920 ho         1 5EL       0.411000
     43 H111        -7.7170     1.6740     1.3190 h1         1 5EL       0.064950
     44 H112        -7.2740     3.3560     1.3250 h1         1 5EL       0.064950
     45 H151        -5.1920     4.1660     2.3010 h1         1 5EL       0.064950
     46 H152        -4.1070     2.8320     2.6870 h1         1 5EL       0.064950
     47 H121        -6.8150     1.1490    -0.4740 hc         1 5EL       0.047950
     48 H122        -6.5150     2.7320    -0.8950 hc         1 5EL       0.047950
     49 H141        -4.3110     3.3170    -0.0950 hc         1 5EL       0.047950
     50 H142        -2.9820     2.2970     0.5920 hc         1 5EL       0.047950
     51 H17          3.3790     1.2550     2.8460 ha         1 5EL       0.139000
     52 H21          4.7770     1.2240    -0.9390 ha         1 5EL       0.139000
     53 H18          4.8060     3.0580     3.4680 ha         1 5EL       0.180000
     54 H20          6.5890     2.8090    -0.3890 ha         1 5EL       0.180000
     55 HB           7.7230     5.1260     0.2600 hn         1 5EL       0.311500
     56 H231         9.1970     3.7270     2.3550 h1         1 5EL       0.092700
     57 H232         9.4010     3.0450     0.5570 h1         1 5EL       0.092700
     58 H25         10.4180     5.9050     2.6830 ha         1 5EL       0.150000
     59 H28          9.8780     4.7850    -1.1510 ha         1 5EL       0.150000
     60 H26         11.9600     7.4330     2.2250 h4         1 5EL       0.033600
     61 H27         11.9000     6.2640    -1.8090 h4         1 5EL       0.033600
@<TRIPOS>BOND
     1     1     2 ar
     2     1     6 ar
     3     2     3 ar
     4     3     4 ar
     5     3    18 1
     6     4     5 ar
     7     5     6 ar
     8     6     7 1
     9     7     8 3
    10     8     9 1
    11     9    10 1
    12     9    14 1
    13     9    17 1
    14    10    11 1
    15    11    12 1
    16    11    16 1
    17    12    13 1
    18    13    14 1
    19    14    15 1
    20    15    16 1
    21    18    19 1
    22    19    20 ar
    23    19    24 ar
    24    20    21 ar
    25    21    22 ar
    26    22    23 ar
    27    22    25 1
    28    23    24 ar
    29    25    26 2
    30    25    27 1
    31    27    28 1
    32    28    29 1
    33    29    30 ar
    34    29    34 ar
    35    30    31 ar
    36    31    32 ar
    37    32    33 ar
    38    33    34 ar
    39     1    35 1
    40     2    36 1
    41     4    37 1
    42     5    38 1
    43    10    39 1
    44    10    40 1
    45    14    41 1
    46    17    42 1
    47    12    43 1
    48    12    44 1
    49    16    45 1
    50    16    46 1
    51    13    47 1
    52    13    48 1
    53    15    49 1
    54    15    50 1
    55    20    51 1
    56    24    52 1
    57    21    53 1
    58    23    54 1
    59    27    55 1
    60    28    56 1
    61    28    57 1
    62    30    58 1
    63    34    59 1
    64    31    60 1
    65    33    61 1
@<TRIPOS>SUBSTRUCTURE
     1 5EL         1 TEMP              0 ****  ****    0 ROOT
