@<TRIPOS>MOLECULE
molecule
   52    53     1     0     0
SMALL
bcc


@<TRIPOS>ATOM
      1 C10          0.0000     0.0000     0.0000 ca         1 5EM      -0.074000
      2 C13          1.4170    -0.0010     2.3940 ca         1 5EM      -0.129000
      3 C15         -0.6990     0.0040     3.6350 cg         1 5EM      -0.213000
      4 C17         -2.0610     0.2530     5.6860 ch         1 5EM      -0.245000
      5 C20         -5.3560     0.3060     7.9790 ca         1 5EM      -0.169500
      6 C21         -6.2530     0.5940     9.2140 ca         1 5EM      -0.117500
      7 C22         -5.5580     0.2480    10.5540 ca         1 5EM       0.153600
      8 C24         -4.1510    -0.3030    10.4750 ca         1 5EM      -0.117500
      9 C26          4.3620     1.4390    -3.0510 c3         1 5EM       0.201200
     10 C28          2.9900     2.3610    -3.1450 c3         1 5EM      -0.136600
     11 C02          5.5820    -0.5980    -2.3380 c          1 5EM       0.465100
     12 N03          6.2220    -1.8450    -3.3170 ns         1 5EM      -0.378400
     13 O04          7.2540    -2.1540    -3.4350 oh         1 5EM      -0.192100
     14 C05          4.2160     0.0010    -2.5470 c3         1 5EM       0.100700
     15 N06          3.4830     0.0010    -1.2780 ns         1 5EM      -0.566900
     16 C07          2.1360     0.0000    -1.2780 c          1 5EM       0.685700
     17 O08          1.5270     0.0010    -2.3310 o          1 5EM      -0.620100
     18 C09          1.3980     0.0000     0.0000 ca         1 5EM      -0.193600
     19 C11         -0.6840     0.0050     1.1820 ca         1 5EM      -0.129000
     20 C12          0.0170     0.0050     2.3950 ca         1 5EM       0.122000
     21 C14          2.0990     0.0000     1.2110 ca         1 5EM      -0.074000
     22 C16         -1.2700    -0.0040     4.6610 ch         1 5EM       0.100000
     23 C18         -2.9780     0.2890     6.7280 cg         1 5EM      -0.117000
     24 C19         -4.2720    -0.1320     8.1710 ca         1 5EM       0.242000
     25 C25         -3.5640    -0.4640     9.1440 ca         1 5EM      -0.169500
     26 H1          -0.5420     0.0380    -0.9370 ha         1 5EM       0.138500
     27 H2           1.9600    -0.0120     3.3320 ha         1 5EM       0.155000
     28 H4          -7.2890     0.8820     9.0760 ha         1 5EM       0.166000
     29 H5          -3.5470    -0.5110    11.3490 ha         1 5EM       0.166000
     30 H6           3.2130     3.2890    -3.6580 hc         1 5EM       0.083867
     31 H7           2.6310     2.5780    -2.1460 hc         1 5EM       0.083867
     32 H8           2.2280     1.8200    -3.6930 hc         1 5EM       0.083867
     33 H9           5.5500    -2.3800    -3.8300 hn         1 5EM       0.281500
     34 H10          7.3920    -2.4610    -4.3160 ho         1 5EM       0.323000
     35 H11          3.6720    -0.5850    -3.2780 h1         1 5EM       0.114700
     36 H12          3.9640     0.1950    -0.4220 hn         1 5EM       0.353500
     37 H13         -1.7670     0.0010     1.1800 ha         1 5EM       0.155000
     38 H14          3.1810    -0.0330     1.2090 ha         1 5EM       0.138500
     39 H15         -6.4570     1.3870    11.9440 hn         1 5EM       0.441300
     40 H16         -6.8890    -0.2910    11.9600 hn         1 5EM       0.441300
     41 H17         -2.5150    -0.6910     9.2890 ha         1 5EM       0.174500
     42 N27          5.0520     1.6780    -4.4430 nz         1 5EM      -0.890600
     43 O01          6.2230    -0.8110    -1.1200 o          1 5EM      -0.506100
     44 N23         -6.3740     0.4670    11.5590 nv         1 5EM      -0.946200
     45 H18          5.1620     2.6610    -4.5960 hn         1 5EM       0.441800
     46 H19          4.4830     1.2890    -5.1690 hn         1 5EM       0.441800
     47 H273         5.9500     1.2370    -4.4500 hn         1 5EM       0.441800
     48 C29          5.3510     2.0510    -2.5940 c3         1 5EM      -0.136600
     49 H3          -5.7590     0.4140     6.9790 ha         1 5EM       0.174500
     50 H21          6.2370     1.4370    -2.7030 hc         1 5EM       0.083867
     51 H22          5.1890     2.2680    -1.5450 hc         1 5EM       0.083867
     52 H23          5.4850     2.9780    -3.1380 hc         1 5EM       0.083867
@<TRIPOS>BOND
     1    44     7 1   
     2     7     8 ar  
     3     7     6 ar  
     4     8    25 ar  
     5     6     5 ar  
     6    25    24 ar  
     7     5    24 ar  
     8    24    23 1   
     9    23     4 3   
    10     4    22 1   
    11    22     3 3   
    12     3    20 1   
    13     2    20 ar  
    14     2    21 ar  
    15    20    19 ar  
    16    21    18 ar  
    17    19     1 ar  
    18    18     1 ar  
    19    18    16 1   
    20    16    17 2   
    21    16    15 1   
    22    13    12 1   
    23    12    11 1   
    24    15    14 1   
    25    11    43 2   
    26    11    14 1   
    27    14     9 1   
    28     9    10 1   
    29     9    42 1   
    30     9    48 1   
    31     1    26 1   
    32     2    27 1   
    33     5    49 1   
    34     6    28 1   
    35     8    29 1   
    36    10    30 1   
    37    10    31 1   
    38    10    32 1   
    39    12    33 1   
    40    13    34 1   
    41    14    35 1   
    42    15    36 1   
    43    19    37 1   
    44    21    38 1   
    45    44    39 1   
    46    44    40 1   
    47    25    41 1   
    48    42    45 1   
    49    42    46 1   
    50    48    50 1   
    51    48    51 1   
    52    48    52 1   
    53    47    42 1   
@<TRIPOS>SUBSTRUCTURE
     1 5EM         1 TEMP              0 ****  ****    0 ROOT
