@<TRIPOS>MOLECULE
5EN
   50    51     1     0     0
SMALL
bcc


@<TRIPOS>ATOM
      1 C10          0.0000     0.0000     0.0000 ca         1 5EN      -0.084000
      2 C13         -0.6980    -0.0130     3.6360 cg         1 5EN      -0.128000
      3 C15         -1.8040     0.6720     5.9170 ch         1 5EN      -0.070000
      4 C17         -3.2520     1.3510     8.5360 ca         1 5EN       0.000000
      5 C20         -4.5710     2.1110    10.4320 ca         1 5EN       0.060600
      6 C22         -3.1330     1.7400    10.6790 ca         1 5EN      -0.117000
      7 C24          1.4180    -0.0080     2.3940 ca         1 5EN      -0.126500
      8 C26          4.3610     1.4340    -3.0530 c3         1 5EN       0.041800
      9 C28          2.8610     1.8120    -3.3460 c3         1 5EN       0.391900
     10 C02          5.5820    -0.6040    -2.3400 c          1 5EN       0.527100
     11 N03          6.4420    -1.3770    -3.3140 ns         1 5EN      -0.032400
     12 O04          7.6940    -1.8240    -3.2380 oh         1 5EN      -0.431100
     13 C05          4.2150    -0.0030    -2.5480 c3         1 5EN      -0.011300
     14 N06          3.4830    -0.0020    -1.2790 ns         1 5EN      -0.144900
     15 C07          2.1360    -0.0010    -1.2780 c          1 5EN       0.573700
     16 O08          1.5270    -0.0020    -2.3310 o          1 5EN      -0.674100
     17 C09          1.3980     0.0000     0.0000 ca         1 5EN      -0.118600
     18 C11         -0.6830     0.0020     1.1820 ca         1 5EN      -0.126500
     19 C12          0.0180    -0.0020     2.3950 ca         1 5EN       0.128000
     20 C14         -1.2850    -0.0420     4.6520 ch         1 5EN       0.015000
     21 C16         -2.5450     0.8710     7.1550 cg         1 5EN      -0.108000
     22 C18         -4.7510     1.7580     8.3770 ca         1 5EN      -0.047500
     23 C19         -5.1540     2.0520     9.2670 ca         1 5EN      -0.117000
     24 N21         -4.9530     2.4850    11.9130 nv         1 5EN      -0.513200
     25 C23         -2.5490     1.3540     9.5920 ca         1 5EN      -0.047500
     26 C25          2.0990     0.0000     1.2110 ca         1 5EN      -0.084000
     27 F29          3.2140     3.1440    -3.7970 f          1 5EN      -0.195300
     28 F30          2.6500     0.8830    -4.1110 f          1 5EN      -0.195300
     29 C31          5.3920     1.4640    -3.8680 c3         1 5EN      -0.069100
     30 H1          -0.8200    -0.3490    -0.6160 ha         1 5EN       0.128000
     31 H2          -2.3650     1.9360    11.4170 ha         1 5EN       0.111000
     32 H3           2.2920    -0.1510     3.0170 ha         1 5EN       0.126000
     33 H4           2.2700     1.5700    -2.4710 h2         1 5EN       0.128700
     34 H5           6.0110    -1.5960    -4.1910 hn         1 5EN       0.111500
     35 H6           8.0140    -2.0900    -4.0850 ho         1 5EN       0.403000
     36 H7           3.6710    -0.5890    -3.2790 h1         1 5EN       0.073700
     37 H8           3.8500    -0.1320    -0.3570 hn         1 5EN       0.207500
     38 H9          -1.7480     0.0750     0.9980 ha         1 5EN       0.126000
     39 H10         -5.1750     1.7510     7.3800 ha         1 5EN       0.118500
     40 H11         -6.2020     2.2670     9.4430 ha         1 5EN       0.111000
     41 H12         -5.9430     2.5950    12.0100 hn         1 5EN       0.258300
     42 H13         -4.5070     2.3970    12.8040 hn         1 5EN       0.258300
     43 H14         -1.5680     0.9110     9.4710 ha         1 5EN       0.118500
     44 H15          3.1530    -0.1130     1.4370 ha         1 5EN       0.128000
     45 H16          5.6570     2.6430    -2.0670 ho         1 5EN       0.407000
     46 H17          5.0880     0.8780    -4.7260 hc         1 5EN       0.038033
     47 H18          5.3130     2.4950    -4.1910 hc         1 5EN       0.038033
     48 H19          6.4060     1.1420    -3.6650 hc         1 5EN       0.038033
     49 O27          5.0270     1.9780    -1.8440 oh         1 5EN      -0.587800
     50 O01          6.4850    -0.1440    -1.3560 o          1 5EN      -0.636100
@<TRIPOS>BOND
     1     1    17 ar  
     2     1    18 ar  
     3     1    30 1   
     4     2    19 1   
     5     2    20 3   
     6     3    20 1   
     7     3    21 3   
     8     4    21 1   
     9     4    22 ar  
    10     4    25 ar  
    11     5     6 ar  
    12     5    23 ar  
    13     5    24 1   
    14     6    25 ar  
    15     6    31 1   
    16     7    19 ar  
    17     7    26 ar  
    18     7    32 1   
    19     8     9 1   
    20     8    13 1   
    21     8    29 1   
    22     8    49 1   
    23     9    27 1   
    24     9    28 1   
    25     9    33 1   
    26    10    11 1   
    27    10    13 1   
    28    10    50 2   
    29    11    12 1   
    30    11    34 1   
    31    12    35 1   
    32    13    14 1   
    33    13    36 1   
    34    14    15 1   
    35    14    37 1   
    36    15    16 2   
    37    15    17 1   
    38    17    26 ar  
    39    18    19 ar  
    40    18    38 1   
    41    22    23 ar  
    42    22    39 1   
    43    23    40 1   
    44    24    41 1   
    45    24    42 1   
    46    25    43 1   
    47    26    44 1   
    48    29    46 1   
    49    29    47 1   
    50    29    48 1   
    51    45    49 1   
@<TRIPOS>SUBSTRUCTURE
     1 5EN         1 TEMP              0 ****  ****    0 ROOT
