@<TRIPOS>MOLECULE
molecule
   50    51     1     0     0
SMALL
bcc


@<TRIPOS>ATOM
      1 C10          0.0000     0.0000     0.0000 ca         1 5EN      -0.107000
      2 C13         -0.6980    -0.0130     3.6360 cg         1 5EN      -0.115000
      3 C15         -1.8040     0.6720     5.9170 ch         1 5EN      -0.096000
      4 C17         -3.2520     1.3510     8.5360 ca         1 5EN      -0.027000
      5 C20         -4.5710     2.1110    10.4320 ca         1 5EN       0.181600
      6 C22         -3.1330     1.7400    10.6790 ca         1 5EN      -0.132500
      7 C24          1.4180    -0.0080     2.3940 ca         1 5EN      -0.137000
      8 C26          4.3610     1.4340    -3.0530 c3         1 5EN       0.042800
      9 C28          2.8610     1.8120    -3.3460 c3         1 5EN       0.455900
     10 C02          5.5820    -0.6040    -2.3400 c          1 5EN       0.624100
     11 N03          6.4420    -1.3770    -3.3140 ns         1 5EN      -0.467400
     12 O04          7.6940    -1.8240    -3.2380 oh         1 5EN      -0.356100
     13 C05          4.2150    -0.0030    -2.5480 c3         1 5EN       0.113700
     14 N06          3.4830    -0.0020    -1.2790 ns         1 5EN      -0.548900
     15 C07          2.1360    -0.0010    -1.2780 c          1 5EN       0.654700
     16 O08          1.5270    -0.0020    -2.3310 o          1 5EN      -0.630100
     17 C09          1.3980     0.0000     0.0000 ca         1 5EN      -0.116600
     18 C11         -0.6830     0.0020     1.1820 ca         1 5EN      -0.137000
     19 C12          0.0180    -0.0020     2.3950 ca         1 5EN       0.094000
     20 C14         -1.2850    -0.0420     4.6520 ch         1 5EN       0.007000
     21 C16         -2.5450     0.8710     7.1550 cg         1 5EN      -0.107000
     22 C18         -4.7510     1.7580     8.3770 ca         1 5EN      -0.059500
     23 C19         -5.1540     2.0520     9.2670 ca         1 5EN      -0.132500
     24 N21         -4.9530     2.4850    11.9130 nv         1 5EN      -0.950200
     25 C23         -2.5490     1.3540     9.5920 ca         1 5EN      -0.059500
     26 C25          2.0990     0.0000     1.2110 ca         1 5EN      -0.107000
     27 F29          3.2140     3.1440    -3.7970 f          1 5EN      -0.218800
     28 F30          2.6500     0.8830    -4.1110 f          1 5EN      -0.218800
     29 C31          5.3920     1.4640    -3.8680 c3         1 5EN      -0.148100
     30 H1          -0.8200    -0.3490    -0.6160 ha         1 5EN       0.155500
     31 H2          -2.3650     1.9360    11.4170 ha         1 5EN       0.138500
     32 H3           2.2920    -0.1510     3.0170 ha         1 5EN       0.154500
     33 H4           2.2700     1.5700    -2.4710 h2         1 5EN       0.148700
     34 H5           6.0110    -1.5960    -4.1910 hn         1 5EN       0.272500
     35 H6           8.0140    -2.0900    -4.0850 ho         1 5EN       0.405000
     36 H7           3.6710    -0.5890    -3.2790 h1         1 5EN       0.097700
     37 H8           3.8500    -0.1320    -0.3570 hn         1 5EN       0.348500
     38 H9          -1.7480     0.0750     0.9980 ha         1 5EN       0.154500
     39 H10         -5.1750     1.7510     7.3800 ha         1 5EN       0.150500
     40 H11         -6.2020     2.2670     9.4430 ha         1 5EN       0.138500
     41 H12         -5.9430     2.5950    12.0100 hn         1 5EN       0.409800
     42 H13         -4.5070     2.3970    12.8040 hn         1 5EN       0.409800
     43 H14         -1.5680     0.9110     9.4710 ha         1 5EN       0.150500
     44 H15          3.1530    -0.1130     1.4370 ha         1 5EN       0.155500
     45 H16          5.6570     2.6430    -2.0670 ho         1 5EN       0.412000
     46 H17          5.0880     0.8780    -4.7260 hc         1 5EN       0.066700
     47 H18          5.3130     2.4950    -4.1910 hc         1 5EN       0.066700
     48 H19          6.4060     1.1420    -3.6650 hc         1 5EN       0.066700
     49 O27          5.0270     1.9780    -1.8440 oh         1 5EN      -0.604800
     50 O01          6.4850    -0.1440    -1.3560 o          1 5EN      -0.599100
@<TRIPOS>BOND
     1    27     9 1   
     2     9    28 1   
     3     9     8 1   
     4    29     8 1   
     5    49     8 1   
     6     8    13 1   
     7    13    10 1   
     8    13    14 1   
     9    10    50 2   
    10    10    11 1   
    11    14    15 1   
    12    11    12 1   
    13    16    15 2   
    14    15    17 1   
    15    26    17 ar  
    16    26     7 ar  
    17    17     1 ar  
    18     7    19 ar  
    19     1    18 ar  
    20    19    18 ar  
    21    19     2 1   
    22     2    20 3   
    23    20     3 1   
    24     3    21 3   
    25    25     6 ar  
    26    25     4 ar  
    27    21     4 1   
    28     6     5 ar  
    29     4    22 ar  
    30     5    24 1   
    31     5    23 ar  
    32    22    23 ar  
    33     1    30 1   
    34     6    31 1   
    35     7    32 1   
    36     9    33 1   
    37    11    34 1   
    38    12    35 1   
    39    13    36 1   
    40    14    37 1   
    41    18    38 1   
    42    22    39 1   
    43    23    40 1   
    44    24    41 1   
    45    24    42 1   
    46    25    43 1   
    47    26    44 1   
    48    49    45 1   
    49    29    46 1   
    50    29    47 1   
    51    29    48 1   
@<TRIPOS>SUBSTRUCTURE
     1 5EN         1 TEMP              0 ****  ****    0 ROOT
