@<TRIPOS>MOLECULE
5EO
   57    59     1     0     0
SMALL
bcc


@<TRIPOS>ATOM
      1 CAA          0.0000     0.0000     0.0000 c3         1 5EO       0.011900
      2 CAB          5.1810    -1.4380    -2.7730 c3         1 5EO       0.010900
      3 OAD          9.6370     0.0020     0.0640 o          1 5EO      -0.685500
      4 OAE          7.4300     0.5450     6.5030 o          1 5EO      -0.587800
      5 OAF          5.1970     0.5380     7.6270 o          1 5EO      -0.587800
      6 CAG          3.9630    -0.0020     5.0450 ca         1 5EO       0.059000
      7 CAH          3.3340    -0.0010     3.8160 ca         1 5EO      -0.247000
      8 CAI          6.1080    -0.0000     3.9780 ca         1 5EO       0.044000
      9 CAJ          7.7030     0.0010    -1.1550 cc         1 5EO      -0.301200
     10 CAK          1.5310     0.0000     0.0000 c3         1 5EO      -0.031400
     11 CAL          5.5530    -0.0000    -2.4040 c3         1 5EO       0.023800
     12 CAM          2.0400     0.0000     1.4420 c3         1 5EO       0.191400
     13 CAN          8.1570    -2.9520     8.0390 c3         1 5EO       0.140300
     14 CAO          5.9880    -2.9530     9.1230 c3         1 5EO       0.140300
     15 CAP          7.5820    -2.3030     6.7760 c3         1 5EO       0.234800
     16 CAQ          5.3230    -2.3040     7.9050 c3         1 5EO       0.234800
     17 NAR          5.7020    -0.0000     0.0500 nd         1 5EO      -0.530300
     18 NAS          7.7240     0.0000     1.2190 ns         1 5EO       0.034600
     19 OAT          3.4700    -0.0000     1.4420 os         1 5EO      -0.259900
     20 CAU          6.3400    -0.0000    -1.1180 cd         1 5EO       0.153400
     21 CAV          5.3460    -0.0000     5.1250 ca         1 5EO      -0.202500
     22 CAW          4.0850    -0.0010     2.6510 ca         1 5EO       0.227100
     23 CAX          5.4860    -0.0010     2.7270 ca         1 5EO      -0.186900
     24 CAY          6.3610    -0.0010     1.1920 cc         1 5EO       0.350500
     25 CAZ          8.4160     0.0010     0.0610 c          1 5EO       0.587700
     26 NBA          7.1220    -3.7750     8.6780 n3         1 5EO      -0.546600
     27 NBB          6.3520    -1.5820     7.1410 n3         1 5EO      -0.535500
     28 HAA         -0.3610    -0.8900     0.5010 hc         1 5EO       0.003367
     29 HAAA        -0.3610     0.8790     0.5200 hc         1 5EO       0.003367
     30 HAAB        -0.3610     0.0110    -1.0210 hc         1 5EO       0.003367
     31 HAB          4.3780    -1.4280    -3.5000 hc         1 5EO       0.005033
     32 HABA         4.8580    -1.9670    -1.8850 hc         1 5EO       0.005033
     33 HABB         6.0450    -1.9370    -3.1960 hc         1 5EO       0.005033
     34 HAC          8.0560    -3.8720    10.5520 h1         1 5EO       0.000700
     35 HACA         6.9060    -5.1750    10.2230 h1         1 5EO       0.000700
     36 HACB         8.4890    -5.1730     9.4340 h1         1 5EO       0.000700
     37 HAG          3.3710    -0.0020     5.9530 ha         1 5EO       0.122000
     38 HAH          2.2530    -0.0030     3.7620 ha         1 5EO       0.132000
     39 HAI          7.1890     0.0000     4.0450 ha         1 5EO       0.120000
     40 HAJ          8.2200    -0.1960    -2.0860 ha         1 5EO       0.148000
     41 HAK          1.8920    -0.8850    -0.5110 hc         1 5EO       0.026200
     42 HAKA         1.8920     0.8850    -0.5110 hc         1 5EO       0.026200
     43 HAL          4.6510     0.5850    -2.2750 hc         1 5EO       0.025700
     44 HALA         6.1540     0.4320    -3.1950 hc         1 5EO       0.025700
     45 HAM          1.6790     0.8850     1.9530 h1         1 5EO       0.002700
     46 HAMA         1.6790    -0.8840     1.9530 h1         1 5EO       0.002700
     47 HAN          8.4780    -2.1790     8.7270 h1         1 5EO       0.016200
     48 HANA         9.0000    -3.5770     7.7710 h1         1 5EO       0.016200
     49 HAO          6.3440    -2.1800     9.7940 h1         1 5EO       0.016200
     50 HAOA         5.2670    -3.5790     9.6350 h1         1 5EO       0.016200
     51 HAP          7.3510    -3.0690     6.0470 h1         1 5EO       0.025950
     52 HAPA         8.3030    -1.6060     6.3650 h1         1 5EO       0.025950
     53 HAQ          4.5610    -1.6080     8.2350 h1         1 5EO       0.025950
     54 HAQA         4.8790    -3.0710     7.2820 h1         1 5EO       0.025950
     55 HNAS         8.2090    -0.0000     2.0950 hn         1 5EO       0.184500
     56 SBC          6.1330    -0.0000     6.7020 sy         1 5EO       1.057200
     57 CAC          7.6800    -4.5490     9.7950 c3         1 5EO       0.190100
@<TRIPOS>BOND
     1     1    10 1   
     2     1    28 1   
     3     1    29 1   
     4     1    30 1   
     5     2    11 1   
     6     2    31 1   
     7     2    32 1   
     8     2    33 1   
     9     3    25 2   
    10     4    56 2   
    11     5    56 2   
    12     6     7 ar  
    13     6    21 ar  
    14     6    37 1   
    15     7    22 ar  
    16     7    38 1   
    17     8    21 ar  
    18     8    23 ar  
    19     8    39 1   
    20     9    20 2   
    21     9    25 1   
    22     9    40 1   
    23    10    12 1   
    24    10    41 1   
    25    10    42 1   
    26    11    20 1   
    27    11    43 1   
    28    11    44 1   
    29    12    19 1   
    30    12    45 1   
    31    12    46 1   
    32    13    15 1   
    33    13    26 1   
    34    13    47 1   
    35    13    48 1   
    36    14    16 1   
    37    14    26 1   
    38    14    49 1   
    39    14    50 1   
    40    15    27 1   
    41    15    51 1   
    42    15    52 1   
    43    16    27 1   
    44    16    53 1   
    45    16    54 1   
    46    17    20 1   
    47    17    24 2   
    48    18    24 1   
    49    18    25 1   
    50    18    55 1   
    51    19    22 1   
    52    21    56 1   
    53    22    23 ar  
    54    23    24 1   
    55    26    57 1   
    56    27    56 1   
    57    34    57 1   
    58    35    57 1   
    59    36    57 1   
@<TRIPOS>SUBSTRUCTURE
     1 5EO         1 TEMP              0 ****  ****    0 ROOT
