@<TRIPOS>MOLECULE
molecule
   52    53     1     0     0
SMALL
bcc


@<TRIPOS>ATOM
      1 C10          0.0000     0.0000     0.0000 ca         1 5EP      -0.086000
      2 C13         -0.6990     0.0150     3.6350 cg         1 5EP      -0.098000
      3 C15         -2.0430    -0.2400     5.9330 ch         1 5EP      -0.026000
      4 C17         -3.6030    -0.3670     8.1130 ca         1 5EP       0.039000
      5 C20         -5.1920    -0.6590    10.1190 ca         1 5EP       0.173600
      6 C21         -3.8230    -0.9600    10.3740 ca         1 5EP      -0.106500
      7 C22         -2.8600    -0.7840     9.1650 ca         1 5EP      -0.118000
      8 C24          1.4180     0.0100     2.3940 ca         1 5EP      -0.115000
      9 C26          4.3620     1.4380    -3.0500 c3         1 5EP      -0.079700
     10 C02          5.5830    -0.5990    -2.3380 c          1 5EP       0.612100
     11 N03          6.5240    -0.7550    -3.4320 ns         1 5EP      -0.468400
     12 O04          7.8820    -1.0800    -3.1650 oh         1 5EP      -0.340100
     13 C05          4.2160     0.0020    -2.5470 c3         1 5EP       0.091700
     14 N06          3.4840     0.0010    -1.2780 ns         1 5EP      -0.567900
     15 C07          2.1360     0.0010    -1.2780 c          1 5EP       0.673700
     16 O08          1.5270     0.0020    -2.3310 o          1 5EP      -0.613100
     17 C09          1.3980     0.0000     0.0000 ca         1 5EP      -0.145600
     18 C11         -0.6830     0.0050     1.1810 ca         1 5EP      -0.115000
     19 C12          0.0170     0.0100     2.3940 ca         1 5EP       0.053000
     20 C14         -1.2800     0.0390     4.6550 ch         1 5EP      -0.031000
     21 C16         -2.7450    -0.1320     6.7520 cg         1 5EP      -0.108000
     22 C18         -4.8950    -0.5510     7.8320 ca         1 5EP      -0.118000
     23 C19         -5.8150    -0.3130     9.2520 ca         1 5EP      -0.106500
     24 N23         -6.0020    -0.9610    11.6530 nv         1 5EP      -1.084200
     25 C25          2.0990     0.0000     1.2110 ca         1 5EP      -0.086000
     26 C29          2.6970     1.7150    -3.1430 c3         1 5EP      -0.093100
     27 H1          -0.5420     0.0350    -0.9380 ha         1 5EP       0.148500
     28 H2          -3.4950    -1.3970    11.3100 ha         1 5EP       0.167000
     29 H3          -1.7790    -0.8440     9.1970 ha         1 5EP       0.165500
     30 H4           1.9600    -0.0170     3.3320 ha         1 5EP       0.146000
     31 H5           4.9420     1.5680    -3.9560 hc         1 5EP       0.086700
     32 H6           5.2000     3.6490    -3.4880 hc         1 5EP       0.032700
     33 H7           4.0510     4.1460    -2.2380 hc         1 5EP       0.032700
     34 H8           5.7820     4.0960    -1.8780 hc         1 5EP       0.032700
     35 H9           6.2120    -0.6540    -4.3770 hn         1 5EP       0.310500
     36 H10          8.2700    -1.4640    -3.9340 ho         1 5EP       0.392000
     37 H11          3.6720    -0.5830    -3.2780 h1         1 5EP       0.089700
     38 H12          3.9850     0.0370    -0.4120 hn         1 5EP       0.345500
     39 H13         -1.7670     0.0050     1.1800 ha         1 5EP       0.146000
     40 H14         -5.3430    -0.2760     6.8850 ha         1 5EP       0.165500
     41 H15         -6.8960    -0.2520     9.2480 ha         1 5EP       0.167000
     42 H16         -6.1270    -0.2150    12.3080 hn         1 5EP       0.409800
     43 H17         -6.3710    -1.8700    11.8530 hn         1 5EP       0.409800
     44 H18          3.1820     0.0000     1.2100 ha         1 5EP       0.148500
     45 H19          5.7910     1.5800    -1.6470 hc         1 5EP       0.070700
     46 H20          4.1130     1.9010    -1.1130 hc         1 5EP       0.070700
     47 H21          2.2240     0.8990    -3.6760 hc         1 5EP       0.052367
     48 H22          2.5140     2.6440    -3.6700 hc         1 5EP       0.052367
     49 H23          2.2850     1.7800    -2.1430 hc         1 5EP       0.052367
     50 C27          4.8290     1.9950    -1.9200 c3         1 5EP      -0.120400
     51 C28          4.9790     3.6200    -2.4280 c3         1 5EP      -0.094100
     52 O01          6.3540    -0.5320    -1.2170 o          1 5EP      -0.618100
@<TRIPOS>BOND
     1    24     5 1
     2    23     5 ar
     3    23    22 ar
     4     5     6 ar
     5    22     4 ar
     6     6     7 ar
     7     4     7 ar
     8     4    21 1
     9    21     3 3
    10     3    20 1
    11    20     2 3
    12    52    10 2
    13    18     1 ar
    14    18    19 ar
    15     2    19 1
    16     1    17 ar
    17    12    11 1
    18    19     8 ar
    19    10    11 1
    20    10    13 1
    21    26     9 1
    22    14    13 1
    23    14    15 1
    24    17    15 1
    25    17    25 ar
    26    13     9 1
    27     8    25 ar
    28    15    16 2
    29     9    50 1
    30    50    51 1
    31     1    27 1
    32     6    28 1
    33     7    29 1
    34     8    30 1
    35     9    31 1
    36    51    32 1
    37    51    33 1
    38    51    34 1
    39    11    35 1
    40    12    36 1
    41    13    37 1
    42    14    38 1
    43    18    39 1
    44    22    40 1
    45    23    41 1
    46    24    42 1
    47    24    43 1
    48    25    44 1
    49    50    45 1
    50    50    46 1
    51    26    47 1
    52    26    48 1
    53    26    49 1
@<TRIPOS>SUBSTRUCTURE
     1 5EP         1 TEMP              0 ****  ****    0 ROOT
