@<TRIPOS>MOLECULE
5EP
   52    53     1     0     0
SMALL
bcc


@<TRIPOS>ATOM
      1 C10          0.0000     0.0000     0.0000 ca         1 5EP      -0.057500
      2 C13         -0.6990     0.0150     3.6350 cg         1 5EP      -0.112000
      3 C15         -2.0430    -0.2400     5.9330 ch         1 5EP      -0.015000
      4 C17         -3.6030    -0.3670     8.1130 ca         1 5EP       0.063000
      5 C20         -5.1920    -0.6590    10.1190 ca         1 5EP       0.058600
      6 C21         -3.8230    -0.9600    10.3740 ca         1 5EP      -0.070000
      7 C22         -2.8600    -0.7840     9.1650 ca         1 5EP      -0.091000
      8 C24          1.4180     0.0100     2.3940 ca         1 5EP      -0.097500
      9 C26          4.3620     1.4380    -3.0500 c3         1 5EP      -0.054700
     10 C02          5.5830    -0.5990    -2.3380 c          1 5EP       0.516100
     11 N03          6.5240    -0.7550    -3.4320 ns         1 5EP      -0.050400
     12 O04          7.8820    -1.0800    -3.1650 oh         1 5EP      -0.412100
     13 C05          4.2160     0.0020    -2.5470 c3         1 5EP      -0.015300
     14 N06          3.4840     0.0010    -1.2780 ns         1 5EP      -0.178900
     15 C07          2.1360     0.0010    -1.2780 c          1 5EP       0.595700
     16 O08          1.5270     0.0020    -2.3310 o          1 5EP      -0.651100
     17 C09          1.3980     0.0000     0.0000 ca         1 5EP      -0.160600
     18 C11         -0.6830     0.0050     1.1810 ca         1 5EP      -0.097500
     19 C12          0.0170     0.0100     2.3940 ca         1 5EP       0.078000
     20 C14         -1.2800     0.0390     4.6550 ch         1 5EP      -0.007000
     21 C16         -2.7450    -0.1320     6.7520 cg         1 5EP      -0.135000
     22 C18         -4.8950    -0.5510     7.8320 ca         1 5EP      -0.091000
     23 C19         -5.8150    -0.3130     9.2520 ca         1 5EP      -0.070000
     24 N23         -6.0020    -0.9610    11.6530 nv         1 5EP      -0.711200
     25 C25          2.0990     0.0000     1.2110 ca         1 5EP      -0.057500
     26 C29          2.6970     1.7150    -3.1430 c3         1 5EP      -0.055100
     27 H1          -0.5420     0.0350    -0.9380 ha         1 5EP       0.119500
     28 H2          -3.4950    -1.3970    11.3100 ha         1 5EP       0.131000
     29 H3          -1.7790    -0.8440     9.1970 ha         1 5EP       0.130000
     30 H4           1.9600    -0.0170     3.3320 ha         1 5EP       0.115000
     31 H5           4.9420     1.5680    -3.9560 hc         1 5EP       0.060700
     32 H6           5.2000     3.6490    -3.4880 hc         1 5EP      -0.001300
     33 H7           4.0510     4.1460    -2.2380 hc         1 5EP      -0.001300
     34 H8           5.7820     4.0960    -1.8780 hc         1 5EP      -0.001300
     35 H9           6.2120    -0.6540    -4.3770 hn         1 5EP       0.150500
     36 H10          8.2700    -1.4640    -3.9340 ho         1 5EP       0.386000
     37 H11          3.6720    -0.5830    -3.2780 h1         1 5EP       0.060700
     38 H12          3.9850     0.0370    -0.4120 hn         1 5EP       0.211500
     39 H13         -1.7670     0.0050     1.1800 ha         1 5EP       0.115000
     40 H14         -5.3430    -0.2760     6.8850 ha         1 5EP       0.130000
     41 H15         -6.8960    -0.2520     9.2480 ha         1 5EP       0.131000
     42 H16         -6.1270    -0.2150    12.3080 hn         1 5EP       0.278300
     43 H17         -6.3710    -1.8700    11.8530 hn         1 5EP       0.278300
     44 H18          3.1820     0.0000     1.2100 ha         1 5EP       0.119500
     45 H19          5.7910     1.5800    -1.6470 hc         1 5EP       0.052700
     46 H20          4.1130     1.9010    -1.1130 hc         1 5EP       0.052700
     47 H21          2.2240     0.8990    -3.6760 hc         1 5EP       0.032700
     48 H22          2.5140     2.6440    -3.6700 hc         1 5EP       0.032700
     49 H23          2.2850     1.7800    -2.1430 hc         1 5EP       0.032700
     50 C27          4.8290     1.9950    -1.9200 c3         1 5EP      -0.103400
     51 C28          4.9790     3.6200    -2.4280 c3         1 5EP       0.012900
     52 O01          6.3540    -0.5320    -1.2170 o          1 5EP      -0.649100
@<TRIPOS>BOND
     1     1    17 ar  
     2     1    18 ar  
     3     1    27 1   
     4     2    19 1   
     5     2    20 3   
     6     3    20 1   
     7     3    21 3   
     8     4     7 ar  
     9     4    21 1   
    10     4    22 ar  
    11     5     6 ar  
    12     5    23 ar  
    13     5    24 1   
    14     6     7 ar  
    15     6    28 1   
    16     7    29 1   
    17     8    19 ar  
    18     8    25 ar  
    19     8    30 1   
    20     9    13 1   
    21     9    26 1   
    22     9    31 1   
    23     9    50 1   
    24    10    11 1   
    25    10    13 1   
    26    10    52 2   
    27    11    12 1   
    28    11    35 1   
    29    12    36 1   
    30    13    14 1   
    31    13    37 1   
    32    14    15 1   
    33    14    38 1   
    34    15    16 2   
    35    15    17 1   
    36    17    25 ar  
    37    18    19 ar  
    38    18    39 1   
    39    22    23 ar  
    40    22    40 1   
    41    23    41 1   
    42    24    42 1   
    43    24    43 1   
    44    25    44 1   
    45    26    47 1   
    46    26    48 1   
    47    26    49 1   
    48    32    51 1   
    49    33    51 1   
    50    34    51 1   
    51    45    50 1   
    52    46    50 1   
    53    50    51 1   
@<TRIPOS>SUBSTRUCTURE
     1 5EP         1 TEMP              0 ****  ****    0 ROOT
