@<TRIPOS>MOLECULE
molecule
   25    26     1     0     0
SMALL
bcc


@<TRIPOS>ATOM
      1 C10          0.0000     0.0000     0.0000 ca         1 5EQ      -0.063000
      2 C15          1.7840    -0.0130     3.8170 cc         1 5EQ      -0.188200
      3 C17          2.1010     0.0000     1.2060 ca         1 5EQ      -0.033000
      4 O01          0.1270    -0.0030    -5.0020 o          1 5EQ      -0.820300
      5 C02          1.3410    -0.0040    -5.0030 c          1 5EQ       0.848800
      6 O03          2.0140    -0.0050    -6.1700 o          1 5EQ      -0.820300
      7 C04          2.0820    -0.0030    -3.7210 ce         1 5EQ       0.137900
      8 O05          3.4350    -0.0040    -3.7220 oh         1 5EQ      -0.504100
      9 C06          1.4060    -0.0020    -2.5490 cf         1 5EQ      -0.355200
     10 O08          3.3570    -0.0020    -1.2800 o          1 5EQ      -0.556100
     11 C09          1.4030     0.0000     0.0000 ca         1 5EQ      -0.178600
     12 C11         -0.6950     0.0000     1.1730 ca         1 5EQ      -0.173000
     13 C12         -0.0160    -0.0040     2.3910 ca         1 5EQ      -0.030200
     14 N13         -0.4330    -0.0030     3.7000 na         1 5EQ      -0.188400
     15 C14          0.6510    -0.0080     4.5360 cd         1 5EQ      -0.126100
     16 C16          1.3930    -0.0090     2.4050 ca         1 5EQ      -0.126800
     17 H1          -0.5370     0.0000    -0.9410 ha         1 5EQ       0.155000
     18 H2           2.7950    -0.0170     4.2060 ha         1 5EQ       0.148000
     19 H3           3.1840    -0.0000     1.2100 ha         1 5EQ       0.150000
     20 H6           3.7500     0.7450    -4.2010 ho         1 5EQ       0.429000
     21 H7           0.3230    -0.0020    -2.5480 ha         1 5EQ       0.154000
     22 H9          -1.7780     0.0000     1.1590 ha         1 5EQ       0.119000
     23 H10         -1.3880     0.0010     3.9980 hn         1 5EQ       0.286700
     24 H11          0.6010    -0.0090     5.6180 h4         1 5EQ       0.153000
     25 C07          2.1410    -0.0020    -1.2790 c          1 5EQ       0.577900
@<TRIPOS>BOND
     1     2    15 2
     2     2    16 1
     3    10    25 2
     4    15    14 1
     5     3    16 ar
     6     3    11 ar
     7    16    13 ar
     8     8     7 1
     9    25    11 1
    10    25     9 1
    11    11     1 ar
    12    14    13 1
    13    13    12 ar
    14     7     9 2
    15     7     5 1
    16     1    12 ar
    17     4     5 1
    18     5     6 1
    19     1    17 1
    20     2    18 1
    21     3    19 1
    22     8    20 1
    23     9    21 1
    24    12    22 1
    25    14    23 1
    26    15    24 1
@<TRIPOS>SUBSTRUCTURE
     1 5EQ         1 TEMP              0 ****  ****    0 ROOT
