@<TRIPOS>MOLECULE
molecule
   25    26     1     0     0
SMALL
bcc


@<TRIPOS>ATOM
      1 C10          0.0000     0.0000     0.0000 cc         1 5ER      -0.064100
      2 C13          0.6690     0.0060     3.5540 ca         1 5ER      -0.153000
      3 C15          3.0690    -0.0010     3.4350 ca         1 5ER      -0.172000
      4 C17          1.7840     0.0000     1.4140 ca         1 5ER      -0.063800
      5 O01          2.7000    -0.0030    -6.0480 o          1 5ER      -0.821300
      6 C02          1.8930    -0.0020    -4.9680 c          1 5ER       0.848800
      7 O03          0.6870    -0.0010    -5.1120 o          1 5ER      -0.821300
      8 C04          2.4770    -0.0020    -3.6090 ce         1 5ER       0.137900
      9 O05          3.8210    -0.0020    -3.4490 oh         1 5ER      -0.503100
     10 C06          1.6670    -0.0020    -2.5260 cf         1 5ER      -0.353200
     11 O08          3.4550    -0.0020    -1.0330 o          1 5ER      -0.558100
     12 C09          1.3670     0.0000     0.0000 cd         1 5ER      -0.213400
     13 N11         -0.4570     0.0060     1.2750 na         1 5ER      -0.181400
     14 C12          0.5970     0.0040     2.1650 ca         1 5ER      -0.057200
     15 C14          1.8970     0.0030     4.1790 ca         1 5ER      -0.121000
     16 C16          3.0180    -0.0040     2.0580 ca         1 5ER      -0.061000
     17 H1          -0.6240    -0.0040    -0.8860 h4         1 5ER       0.183000
     18 H2          -0.2390     0.0090     4.1450 ha         1 5ER       0.113000
     19 H3           4.0270    -0.0030     3.9390 ha         1 5ER       0.121000
     20 H5           4.1900    -0.7510    -3.8880 ho         1 5ER       0.429000
     21 H6           0.5910    -0.0010    -2.6530 ha         1 5ER       0.148000
     22 H7          -1.4240     0.0080     1.5350 hn         1 5ER       0.286700
     23 H8           1.9490     0.0050     5.2610 ha         1 5ER       0.116000
     24 H9           3.9340    -0.0070     1.4800 ha         1 5ER       0.158000
     25 C07          2.2460    -0.0010    -1.1770 c          1 5ER       0.601500
@<TRIPOS>BOND
     1     3    16 ar  
     2     3    15 ar  
     3    16     4 ar  
     4    15     2 ar  
     5    11    25 2   
     6     4    14 ar  
     7     4    12 1   
     8     2    14 ar  
     9     9     8 1   
    10    25    12 1   
    11    25    10 1   
    12    14    13 1   
    13    12     1 2   
    14     8    10 2   
    15     8     6 1   
    16    13     1 1   
    17     7     6 1   
    18     6     5 1   
    19     1    17 1   
    20     2    18 1   
    21     3    19 1   
    22     9    20 1   
    23    10    21 1   
    24    13    22 1   
    25    15    23 1   
    26    16    24 1   
@<TRIPOS>SUBSTRUCTURE
     1 5ER         1 TEMP              0 ****  ****    0 ROOT
