@<TRIPOS>MOLECULE
molecule
   50    53     1     0     0
SMALL
bcc


@<TRIPOS>ATOM
      1 O01          0.0000     0.0000     0.0000 oh         1 5ES      -0.522600
      2 C02          1.3590     0.0000     0.0000 ca         1 5ES       0.104600
      3 C03          2.0510     0.0000     1.2030 ca         1 5ES      -0.153000
      4 C04          3.4300     0.0000     1.2080 ca         1 5ES      -0.103000
      5 C05          2.0520    -0.0070    -1.2040 ca         1 5ES      -0.153000
      6 C06          3.4300    -0.0080    -1.2080 ca         1 5ES      -0.103000
      7 C07          4.1290    -0.0010    -0.0000 ca         1 5ES      -0.056800
      8 C08          5.6080    -0.0000    -0.0000 ce         1 5ES      -0.022400
      9 C09          6.3480     1.1600    -0.5430 ca         1 5ES      -0.056800
     10 C10          7.1570     1.0090    -1.6700 ca         1 5ES      -0.103000
     11 C11          7.8450     2.0940    -2.1740 ca         1 5ES      -0.153000
     12 C12          7.7320     3.3340    -1.5590 ca         1 5ES       0.104600
     13 O13          8.4110     4.4000    -2.0580 oh         1 5ES      -0.522600
     14 C14          6.9290     3.4880    -0.4380 ca         1 5ES      -0.153000
     15 C15          6.2340     2.4110     0.0680 ca         1 5ES      -0.103000
     16 C16          6.2870    -1.0630     0.4970 cf         1 5ES      -0.087200
     17 C17          7.7490    -1.0010     0.6430 ca         1 5ES      -0.037800
     18 C18          8.3740     0.2150     0.9410 ca         1 5ES      -0.150000
     19 C19          9.7450     0.2700     1.0780 ca         1 5ES      -0.094000
     20 C20         10.5070    -0.8720     0.9200 ca         1 5ES      -0.180000
     21 C21          9.8980    -2.0870     0.6230 ca         1 5ES       0.171600
     22 N22         10.6740    -3.2380     0.4660 nu         1 5ES      -0.686000
     23 C23         10.2020    -4.2980    -0.3170 ca         1 5ES       0.159600
     24 C24          9.4110    -4.0420    -1.4290 ca         1 5ES      -0.153000
     25 C25          8.9460    -5.0900    -2.2000 ca         1 5ES      -0.138000
     26 C26          9.2710    -6.3940    -1.8650 ca         1 5ES       0.098900
     27 F27          8.8160    -7.4170    -2.6220 f          1 5ES      -0.143900
     28 C28         10.0600    -6.6500    -0.7580 ca         1 5ES      -0.138000
     29 C29         10.5310    -5.6060     0.0130 ca         1 5ES      -0.153000
     30 C30          8.5200    -2.1570     0.4890 ca         1 5ES      -0.172000
     31 H1          -0.3140     0.8890    -0.0030 ho         1 5ES       0.419000
     32 H2           1.5080     0.0010     2.1400 ha         1 5ES       0.141750
     33 H3           3.9690     0.0030     2.1470 ha         1 5ES       0.139000
     34 H4           1.5080    -0.0130    -2.1410 ha         1 5ES       0.141750
     35 H5           3.9690    -0.0120    -2.1470 ha         1 5ES       0.139000
     36 H6           7.2440     0.0420    -2.1500 ha         1 5ES       0.139000
     37 H7           8.4730     1.9780    -3.0490 ha         1 5ES       0.141750
     38 H8           7.8760     4.8430    -2.6960 ho         1 5ES       0.419000
     39 H9           6.8430     4.4590     0.0360 ha         1 5ES       0.141750
     40 H10          5.6070     2.5320     0.9430 ha         1 5ES       0.139000
     41 H11          5.7430    -1.9120     0.8930 ha         1 5ES       0.144000
     42 H12          7.7810     1.1120     1.0650 ha         1 5ES       0.149000
     43 H13         10.2260     1.2130     1.3090 ha         1 5ES       0.135000
     44 H14         11.5840    -0.8210     1.0290 ha         1 5ES       0.130000
     45 H15         11.5710    -3.3000     0.9040 hn         1 5ES       0.449800
     46 H16          9.1570    -3.0220    -1.6910 ha         1 5ES       0.145000
     47 H17          8.3290    -4.8910    -3.0680 ha         1 5ES       0.146500
     48 H18         10.3150    -7.6710    -0.4990 ha         1 5ES       0.146500
     49 H19         11.1480    -5.8070     0.8800 ha         1 5ES       0.145000
     50 H20          8.0430    -3.1010     0.2570 ha         1 5ES       0.147000
@<TRIPOS>BOND
     1     1     2 1
     2     2     5 ar
     3     2     3 ar
     4     5     6 ar
     5     3     4 ar
     6     6     7 ar
     7     4     7 ar
     8     7     8 1
     9    27    26 1
    10     8     9 1
    11     8    16 2
    12     9    10 ar
    13     9    15 ar
    14    10    11 ar
    15    15    14 ar
    16    11    12 ar
    17    14    12 ar
    18    12    13 1
    19    16    17 1
    20    26    25 ar
    21    26    28 ar
    22    25    24 ar
    23    28    29 ar
    24    17    30 ar
    25    17    18 ar
    26    24    23 ar
    27    30    21 ar
    28    29    23 ar
    29    23    22 1
    30    18    19 ar
    31    21    22 1
    32    21    20 ar
    33    19    20 ar
    34     1    31 1
    35     3    32 1
    36     4    33 1
    37     5    34 1
    38     6    35 1
    39    10    36 1
    40    11    37 1
    41    13    38 1
    42    14    39 1
    43    15    40 1
    44    16    41 1
    45    18    42 1
    46    19    43 1
    47    20    44 1
    48    22    45 1
    49    24    46 1
    50    25    47 1
    51    28    48 1
    52    29    49 1
    53    30    50 1
@<TRIPOS>SUBSTRUCTURE
     1 5ES         1 TEMP              0 ****  ****    0 ROOT
