@<TRIPOS>MOLECULE
5ES
   50    54     1     0     0
SMALL
bcc


@<TRIPOS>ATOM
      1 O01          0.0000     0.0000     0.0000 oh         1 5ES      -0.254000
      2 C02          1.3590     0.0000     0.0000 ca         1 5ES       0.087500
      3 C03          2.0510     0.0000     1.2030 ca         1 5ES      -0.139750
      4 C04          3.4300     0.0000     1.2080 ca         1 5ES      -0.059250
      5 C05          2.0520    -0.0070    -1.2040 ca         1 5ES      -0.139750
      6 C06          3.4300    -0.0080    -1.2080 ca         1 5ES      -0.059250
      7 C07          4.1290    -0.0010    -0.0000 ca         1 5ES      -0.091000
      8 C08          5.6080    -0.0000    -0.0000 c2         1 5ES       0.142000
      9 C09          6.3480     1.1600    -0.5430 ca         1 5ES      -0.091000
     10 C10          7.1570     1.0090    -1.6700 ca         1 5ES      -0.059250
     11 C11          7.8450     2.0940    -2.1740 ca         1 5ES      -0.139750
     12 C12          7.7320     3.3340    -1.5590 ca         1 5ES       0.087500
     13 O13          8.4110     4.4000    -2.0580 oh         1 5ES      -0.254000
     14 C14          6.9290     3.4880    -0.4380 ca         1 5ES      -0.139750
     15 C15          6.2340     2.4110     0.0680 ca         1 5ES      -0.059250
     16 C16          6.2870    -1.0630     0.4970 c2         1 5ES      -0.398000
     17 C17          7.7490    -1.0010     0.6430 c3         1 5ES      -0.071000
     18 C18          8.3740     0.2150     0.9410 c2         1 5ES      -0.155000
     19 C19          9.7450     0.2700     1.0780 c2         1 5ES      -0.064000
     20 C20         10.5070    -0.8720     0.9200 c2         1 5ES      -0.145000
     21 C21          9.8980    -2.0870     0.6230 c2         1 5ES      -0.064000
     22 N22         10.6740    -3.2380     0.4660 nu         1 5ES       0.139000
     23 C23         10.2020    -4.2980    -0.3170 ca         1 5ES      -0.069000
     24 C24          9.4110    -4.0420    -1.4290 ca         1 5ES      -0.128500
     25 C25          8.9460    -5.0900    -2.2000 ca         1 5ES      -0.097000
     26 C26          9.2710    -6.3940    -1.8650 ca         1 5ES       0.039000
     27 F27          8.8160    -7.4170    -2.6220 f          1 5ES      -0.095000
     28 C28         10.0600    -6.6500    -0.7580 ca         1 5ES      -0.097000
     29 C29         10.5310    -5.6060     0.0130 ca         1 5ES      -0.128500
     30 C30          8.5200    -2.1570     0.4890 c2         1 5ES      -0.142000
     31 H1          -0.3140     0.8890    -0.0030 ho         1 5ES       0.202500
     32 H2           1.5080     0.0010     2.1400 ha         1 5ES       0.116500
     33 H3           3.9690     0.0030     2.1470 ha         1 5ES       0.110250
     34 H4           1.5080    -0.0130    -2.1410 ha         1 5ES       0.116500
     35 H5           3.9690    -0.0120    -2.1470 ha         1 5ES       0.110250
     36 H6           7.2440     0.0420    -2.1500 ha         1 5ES       0.110250
     37 H7           8.4730     1.9780    -3.0490 ha         1 5ES       0.116500
     38 H8           7.8760     4.8430    -2.6960 ho         1 5ES       0.202500
     39 H9           6.8430     4.4590     0.0360 ha         1 5ES       0.116500
     40 H10          5.6070     2.5320     0.9430 ha         1 5ES       0.110250
     41 H11          6.9430    -1.2790    -0.3370 DU         1 5ES       0.291000
     42 H12          7.7810     1.1120     1.0650 ha         1 5ES       0.134000
     43 H13         10.2260     1.2130     1.3090 ha         1 5ES       0.105000
     44 H14         11.5840    -0.8210     1.0290 ha         1 5ES       0.108000
     45 H15         11.5710    -3.3000     0.9040 hn         1 5ES       0.084000
     46 H16          9.1570    -3.0220    -1.6910 ha         1 5ES       0.117000
     47 H17          8.3290    -4.8910    -3.0680 ha         1 5ES       0.117500
     48 H18         10.3150    -7.6710    -0.4990 ha         1 5ES       0.117500
     49 H19         11.1480    -5.8070     0.8800 ha         1 5ES       0.117000
     50 H20          8.0430    -3.1010     0.2570 ha         1 5ES       0.142000
@<TRIPOS>BOND
     1     1     2 1   
     2     1    31 1   
     3     2     3 1   
     4     2     5 1   
     5     3     4 1   
     6     3    32 1   
     7     4     7 1   
     8     4    33 1   
     9     5     6 1   
    10     5    34 1   
    11     6     7 1   
    12     6    35 1   
    13     7     8 1   
    14     8     9 1   
    15     8    16 1   
    16     9    10 1   
    17     9    15 1   
    18    10    11 1   
    19    10    36 1   
    20    11    12 1   
    21    11    37 1   
    22    12    13 1   
    23    12    14 1   
    24    13    38 1   
    25    14    15 1   
    26    14    39 1   
    27    15    40 1   
    28    16    17 1   
    29    16    41 1   
    30    17    18 1   
    31    17    30 1   
    32    17    41 1   
    33    18    19 1   
    34    18    42 1   
    35    19    20 1   
    36    19    43 1   
    37    20    21 1   
    38    20    44 1   
    39    21    22 1   
    40    21    30 1   
    41    22    23 1   
    42    22    45 1   
    43    23    24 1   
    44    23    29 1   
    45    24    25 1   
    46    24    46 1   
    47    25    26 1   
    48    25    47 1   
    49    26    27 1   
    50    26    28 1   
    51    28    29 1   
    52    28    48 1   
    53    29    49 1   
    54    30    50 1   
@<TRIPOS>SUBSTRUCTURE
     1 5ES         1 TEMP              0 ****  ****    0 ROOT
