@<TRIPOS>MOLECULE
molecule
   31    33     1     0     0
SMALL
bcc


@<TRIPOS>ATOM
      1 C01          0.0000     0.0000     0.0000 ca         1 5ET       0.116600
      2 C02          1.3890     0.0000     0.0000 ca         1 5ET      -0.150500
      3 C03          2.0800     0.0000     1.1930 ca         1 5ET      -0.093500
      4 C04          1.3820     0.0010     2.4020 ca         1 5ET      -0.011500
      5 C05         -0.0150     0.0020     2.3980 ca         1 5ET       0.049900
      6 C06         -0.6990     0.0010     1.1990 ca         1 5ET      -0.149500
      7 Cl1         -0.8890     0.0040     3.8980 cl         1 5ET      -0.090400
      8 O01         -0.6780     0.0050    -1.1780 oh         1 5ET      -0.517100
      9 C07          2.1200     0.0020     3.6830 cc         1 5ET       0.001400
     10 S01          3.4250    -1.1010     4.1000 ss         1 5ET      -0.095800
     11 C08          3.6020    -0.3440     5.6790 cd         1 5ET       0.001400
     12 C09          2.7060     0.6580     5.8030 cc         1 5ET      -0.135500
     13 C10          1.8980     0.8510     4.7090 cc         1 5ET      -0.135500
     14 C11          4.5820    -0.7450     6.7090 ca         1 5ET      -0.011500
     15 C12          5.3890     0.2180     7.3190 ca         1 5ET      -0.093500
     16 C13          6.3020    -0.1600     8.2800 ca         1 5ET      -0.150500
     17 C14          6.4200    -1.4960     8.6430 ca         1 5ET       0.116600
     18 C15          5.6200    -2.4560     8.0410 ca         1 5ET      -0.149500
     19 C16          4.6990    -2.0860     7.0810 ca         1 5ET       0.049900
     20 Cl2          3.6930    -3.2870     6.3330 cl         1 5ET      -0.090400
     21 O02          7.3220    -1.8630     9.5900 oh         1 5ET      -0.517100
     22 H1           1.9300    -0.0010    -0.9390 ha         1 5ET       0.147000
     23 H2           3.1630    -0.0000     1.1920 ha         1 5ET       0.147000
     24 H3          -1.7820     0.0020     1.1940 ha         1 5ET       0.156000
     25 H4          -0.8720    -0.8820    -1.4320 ho         1 5ET       0.423000
     26 H5           2.6330     1.2670     6.6960 ha         1 5ET       0.155000
     27 H6           1.1360     1.6200     4.6750 ha         1 5ET       0.155000
     28 H7           5.2990     1.2600     7.0370 ha         1 5ET       0.147000
     29 H8           6.9290     0.5860     8.7530 ha         1 5ET       0.147000
     30 H9           5.7130    -3.4960     8.3280 ha         1 5ET       0.156000
     31 H10          8.1330    -2.1060     9.1760 ho         1 5ET       0.423000
@<TRIPOS>BOND
     1     2     3 ar
     2     2     1 ar
     3     3     4 ar
     4     8     1 1
     5     1     6 ar
     6    13    12 1
     7    13     9 2
     8     4     9 1
     9     4     5 ar
    10    12    11 2
    11     9    10 1
    12     6     5 ar
    13     5     7 1
    14    11    10 1
    15    11    14 1
    16    15    16 ar
    17    15    14 ar
    18    16    17 ar
    19    14    19 ar
    20    17    21 1
    21    17    18 ar
    22    19    18 ar
    23    19    20 1
    24     2    22 1
    25     3    23 1
    26     6    24 1
    27     8    25 1
    28    12    26 1
    29    13    27 1
    30    15    28 1
    31    16    29 1
    32    18    30 1
    33    21    31 1
@<TRIPOS>SUBSTRUCTURE
     1 5ET         1 TEMP              0 ****  ****    0 ROOT
