@<TRIPOS>MOLECULE
molecule
   34    36     1     0     0
SMALL
bcc


@<TRIPOS>ATOM
      1 O01          0.0000     0.0000     0.0000 oh         1 5EU      -0.517100
      2 C02          1.3590     0.0000     0.0000 ca         1 5EU       0.116100
      3 C03          2.0520     0.0000     1.2030 ca         1 5EU      -0.150000
      4 C04          3.4300     0.0010     1.2080 ca         1 5EU      -0.095000
      5 C05          4.1310     0.0010     0.0000 ca         1 5EU      -0.011000
      6 C06          5.6080     0.0000     0.0010 cc         1 5EU       0.000900
      7 C07          6.3850    -0.8440    -0.7080 cd         1 5EU      -0.129000
      8 C08          7.7390    -0.6560    -0.5490 cd         1 5EU      -0.091300
      9 C09          8.7650    -1.5010    -1.2590 c3         1 5EU      -0.031800
     10 C10          8.0770     0.3450     0.2910 cc         1 5EU      -0.001100
     11 C11          9.4590     0.7440     0.6270 ca         1 5EU      -0.007000
     12 C12          9.8360     0.9100     1.9620 ca         1 5EU       0.045400
     13 Cl1          8.6810     0.6450     3.2310 cl         1 5EU      -0.091400
     14 C14         11.1280     1.2830     2.2700 ca         1 5EU      -0.149000
     15 C15         12.0520     1.4940     1.2560 ca         1 5EU       0.116100
     16 O16         13.3240     1.8630     1.5630 oh         1 5EU      -0.518100
     17 C17         11.6810     1.3310    -0.0730 ca         1 5EU      -0.151000
     18 C18         10.3940     0.9530    -0.3890 ca         1 5EU      -0.092000
     19 S19          6.6210     1.1060     0.9200 ss         1 5EU      -0.095800
     20 C20          3.4300     0.0010    -1.2090 ca         1 5EU       0.052400
     21 Cl2          4.2940     0.0010    -2.7140 cl         1 5EU      -0.094400
     22 C22          2.0500    -0.0050    -1.2040 ca         1 5EU      -0.150000
     23 H1          -0.3140     0.8880    -0.0430 ho         1 5EU       0.423000
     24 H2           1.5080     0.0000     2.1400 ha         1 5EU       0.147000
     25 H3           3.9690     0.0010     2.1480 ha         1 5EU       0.149000
     26 H4           5.9750    -1.6120    -1.3530 ha         1 5EU       0.159000
     27 H5           8.3030    -2.4210    -1.5970 hc         1 5EU       0.045700
     28 H6           9.1540    -0.9570    -2.1110 hc         1 5EU       0.045700
     29 H7           9.5750    -1.7340    -0.5780 hc         1 5EU       0.045700
     30 H8          11.4220     1.4110     3.3050 ha         1 5EU       0.156000
     31 H9          13.3700     2.8010     1.6390 ho         1 5EU       0.423000
     32 H10         12.4060     1.4950    -0.8610 ha         1 5EU       0.147000
     33 H11         10.1050     0.8260    -1.4260 ha         1 5EU       0.149000
     34 H12          1.5050    -0.0050    -2.1400 ha         1 5EU       0.156000
@<TRIPOS>BOND
     1     1     2 1
     2    22     2 ar
     3    22    20 ar
     4     2     3 ar
     5    21    20 1
     6    20     5 ar
     7     3     4 ar
     8     5     4 ar
     9     5     6 1
    10     6     7 2
    11     6    19 1
    12     7     8 1
    13    19    10 1
    14     8    10 2
    15     8     9 1
    16    13    12 1
    17    10    11 1
    18    11    12 ar
    19    11    18 ar
    20    12    14 ar
    21    14    15 ar
    22    18    17 ar
    23    15    17 ar
    24    15    16 1
    25     1    23 1
    26     3    24 1
    27     4    25 1
    28     7    26 1
    29     9    27 1
    30     9    28 1
    31     9    29 1
    32    14    30 1
    33    16    31 1
    34    17    32 1
    35    18    33 1
    36    22    34 1
@<TRIPOS>SUBSTRUCTURE
     1 5EU         1 TEMP              0 ****  ****    0 ROOT
