@<TRIPOS>MOLECULE
5EV
   55    59     1     0     0
SMALL
bcc


@<TRIPOS>ATOM
      1 C1           0.0000     0.0000     0.0000 ca         1 5EV      -0.114800
      2 C2           1.4080     0.0000     0.0000 ca         1 5EV      -0.195200
      3 C3           2.0910     0.0000     1.2110 ca         1 5EV      -0.099000
      4 C11          3.1470     0.0020    -1.7500 ca         1 5EV      -0.214200
      5 C13          3.2640     0.6850     3.7390 ca         1 5EV       0.742900
      6 C14          3.8140     1.2020    -1.9480 ca         1 5EV      -0.036000
      7 C15          5.1300     1.2000    -2.3690 ca         1 5EV      -0.145000
      8 C16          5.7860     0.0030    -2.5940 ca         1 5EV      -0.040000
      9 C17          5.1290    -1.1970    -2.3980 ca         1 5EV      -0.205000
     10 C18          3.8090    -1.2040    -1.9760 ca         1 5EV       0.167100
     11 C20          4.8200     2.1120     2.8100 ca         1 5EV       0.524200
     12 C21          5.5740     2.0310     3.9640 ca         1 5EV      -0.501600
     13 C22          5.1070     1.2320     5.0110 ca         1 5EV       0.585200
     14 C25          3.8670    -3.5330    -1.9490 ca         1 5EV       0.099100
     15 C26          4.7400    -3.9610    -0.9590 ca         1 5EV      -0.116500
     16 C27          5.4520    -5.1330    -1.1260 ca         1 5EV      -0.087000
     17 C28          5.2930    -5.8800    -2.2800 ca         1 5EV      -0.104000
     18 C29          4.4240    -5.4550    -3.2670 ca         1 5EV      -0.087000
     19 C30          3.7090    -4.2840    -3.1040 ca         1 5EV      -0.116500
     20 C4           1.3810    -0.0010     2.3990 ca         1 5EV       0.002600
     21 C5          -0.0130    -0.0020     2.3900 ca         1 5EV      -0.158000
     22 C6          -0.6980    -0.0020     1.2090 ca         1 5EV      -0.031000
     23 C7          -0.4060     0.0070    -1.4080 cc         1 5EV      -0.164200
     24 C8           0.7180     0.0120    -2.1420 cd         1 5EV      -0.244300
     25 N9           1.8140     0.0010    -1.3180 na         1 5EV       0.525500
     26 C10          0.7680     0.0190    -3.6480 c3         1 5EV       0.095100
     27 N12          2.0680    -0.0020     3.6170 nu         1 5EV      -0.282300
     28 N19          3.6830     1.4350     2.7300 nb         1 5EV      -0.737000
     29 N23          3.9580     0.5810     4.8620 nb         1 5EV      -0.765000
     30 O24          3.1610    -2.3830    -1.7830 os         1 5EV      -0.207200
     31 N31          5.8310     1.1230     6.1880 nu         1 5EV      -0.500900
     32 C32          7.0960     1.8450     6.3400 c3         1 5EV       0.198100
     33 H1           3.1740     0.0000     1.2240 ha         1 5EV       0.134000
     34 H2           3.3030     2.1410    -1.7730 ha         1 5EV       0.118000
     35 H3           5.6490     2.1380    -2.5240 ha         1 5EV       0.110000
     36 H4           6.8180     0.0070    -2.9240 ha         1 5EV       0.103000
     37 H5           5.6460    -2.1330    -2.5750 ha         1 5EV       0.131000
     38 H6           5.1540     2.7220     1.9800 h4         1 5EV      -0.025900
     39 H7           6.5070     2.5740     4.0560 ha         1 5EV       0.131000
     40 H8           4.8640    -3.3760    -0.0550 ha         1 5EV       0.118500
     41 H9           6.1340    -5.4670    -0.3540 ha         1 5EV       0.106000
     42 H10          5.8520    -6.7980    -2.4100 ha         1 5EV       0.105000
     43 H11          4.3020    -6.0420    -4.1690 ha         1 5EV       0.106000
     44 H12          3.0280    -3.9530    -3.8790 ha         1 5EV       0.118500
     45 H13         -0.5560    -0.0030     3.3280 ha         1 5EV       0.103000
     46 H14         -1.7820    -0.0020     1.2100 ha         1 5EV       0.098000
     47 H15         -1.4220     0.0130    -1.7850 ha         1 5EV       0.128000
     48 H16          1.0800    -0.9560    -4.0040 hc         1 5EV       0.007367
     49 H17          1.4740     0.7690    -3.9830 hc         1 5EV       0.007367
     50 H18         -0.2150     0.2490    -4.0410 hc         1 5EV       0.007367
     51 H19          1.7020    -0.5090     4.3980 hn         1 5EV       0.289800
     52 H20          5.4910     0.5460     6.9320 hn         1 5EV       0.296800
     53 H21          6.9180     2.9090     6.2400 h1         1 5EV       0.006700
     54 H22          7.7900     1.5220     5.5740 h1         1 5EV       0.006700
     55 H23          7.5140     1.6380     7.3170 h1         1 5EV       0.006700
@<TRIPOS>BOND
     1     1     2 ar  
     2     1    22 ar  
     3     1    23 1   
     4     2     3 ar  
     5     2    25 1   
     6     3    20 ar  
     7     3    33 1   
     8     4     6 ar  
     9     4    10 ar  
    10     4    25 1   
    11     5    27 1   
    12     5    28 ar  
    13     5    29 ar  
    14     6     7 ar  
    15     6    34 1   
    16     7     8 ar  
    17     7    35 1   
    18     8     9 ar  
    19     8    36 1   
    20     9    10 ar  
    21     9    37 1   
    22    10    30 1   
    23    11    12 ar  
    24    11    28 ar  
    25    11    38 1   
    26    12    13 ar  
    27    12    39 1   
    28    13    29 ar  
    29    13    31 1   
    30    14    15 ar  
    31    14    19 ar  
    32    14    30 1   
    33    15    16 ar  
    34    15    40 1   
    35    16    17 ar  
    36    16    41 1   
    37    17    18 ar  
    38    17    42 1   
    39    18    19 ar  
    40    18    43 1   
    41    19    44 1   
    42    20    21 ar  
    43    20    27 1   
    44    21    22 ar  
    45    21    45 1   
    46    22    46 1   
    47    23    24 2   
    48    23    47 1   
    49    24    25 1   
    50    24    26 1   
    51    26    48 1   
    52    26    49 1   
    53    26    50 1   
    54    27    51 1   
    55    31    32 1   
    56    31    52 1   
    57    32    53 1   
    58    32    54 1   
    59    32    55 1   
@<TRIPOS>SUBSTRUCTURE
     1 5EV         1 TEMP              0 ****  ****    0 ROOT
