@<TRIPOS>MOLECULE
molecule
   55    59     1     0     0
SMALL
bcc


@<TRIPOS>ATOM
      1 C1           0.0000     0.0000     0.0000 ca         1 5EV      -0.116800
      2 C2           1.4080     0.0000     0.0000 ca         1 5EV      -0.006200
      3 C3           2.0910     0.0000     1.2110 ca         1 5EV      -0.134000
      4 C11          3.1470     0.0020    -1.7500 ca         1 5EV      -0.029200
      5 C13          3.2640     0.6850     3.7390 ca         1 5EV       0.972900
      6 C14          3.8140     1.2020    -1.9480 ca         1 5EV      -0.081000
      7 C15          5.1300     1.2000    -2.3690 ca         1 5EV      -0.166000
      8 C16          5.7860     0.0030    -2.5940 ca         1 5EV      -0.085000
      9 C17          5.1290    -1.1970    -2.3980 ca         1 5EV      -0.211000
     10 C18          3.8090    -1.2040    -1.9760 ca         1 5EV       0.147100
     11 C20          4.8200     2.1120     2.8100 ca         1 5EV       0.520200
     12 C21          5.5740     2.0310     3.9640 ca         1 5EV      -0.502600
     13 C22          5.1070     1.2320     5.0110 ca         1 5EV       0.763200
     14 C25          3.8670    -3.5330    -1.9490 ca         1 5EV       0.096100
     15 C26          4.7400    -3.9610    -0.9590 ca         1 5EV      -0.136000
     16 C27          5.4520    -5.1330    -1.1260 ca         1 5EV      -0.120000
     17 C28          5.2930    -5.8800    -2.2800 ca         1 5EV      -0.129000
     18 C29          4.4240    -5.4550    -3.2670 ca         1 5EV      -0.120000
     19 C30          3.7090    -4.2840    -3.1040 ca         1 5EV      -0.136000
     20 C4           1.3810    -0.0010     2.3990 ca         1 5EV       0.169600
     21 C5          -0.0130    -0.0020     2.3900 ca         1 5EV      -0.184000
     22 C6          -0.6980    -0.0020     1.2090 ca         1 5EV      -0.068000
     23 C7          -0.4060     0.0070    -1.4080 cc         1 5EV      -0.196200
     24 C8           0.7180     0.0120    -2.1420 cd         1 5EV      -0.041300
     25 N9           1.8140     0.0010    -1.3180 na         1 5EV       0.005500
     26 C10          0.7680     0.0190    -3.6480 c3         1 5EV      -0.029900
     27 N12          2.0680    -0.0020     3.6170 nu         1 5EV      -0.752300
     28 N19          3.6830     1.4350     2.7300 nb         1 5EV      -0.822000
     29 N23          3.9580     0.5810     4.8620 nb         1 5EV      -0.867000
     30 O24          3.1610    -2.3830    -1.7830 os         1 5EV      -0.231200
     31 N31          5.8310     1.1230     6.1880 nu         1 5EV      -0.913900
     32 C32          7.0960     1.8450     6.3400 c3         1 5EV       0.230100
     33 H1           3.1740     0.0000     1.2240 ha         1 5EV       0.156000
     34 H2           3.3030     2.1410    -1.7730 ha         1 5EV       0.152000
     35 H3           5.6490     2.1380    -2.5240 ha         1 5EV       0.136000
     36 H4           6.8180     0.0070    -2.9240 ha         1 5EV       0.134000
     37 H5           5.6460    -2.1330    -2.5750 ha         1 5EV       0.150000
     38 H6           5.1540     2.7220     1.9800 h4         1 5EV       0.024100
     39 H7           6.5070     2.5740     4.0560 ha         1 5EV       0.140000
     40 H8           4.8640    -3.3760    -0.0550 ha         1 5EV       0.146000
     41 H9           6.1340    -5.4670    -0.3540 ha         1 5EV       0.136000
     42 H10          5.8520    -6.7980    -2.4100 ha         1 5EV       0.133000
     43 H11          4.3020    -6.0420    -4.1690 ha         1 5EV       0.136000
     44 H12          3.0280    -3.9530    -3.8790 ha         1 5EV       0.146000
     45 H13         -0.5560    -0.0030     3.3280 ha         1 5EV       0.127000
     46 H14         -1.7820    -0.0020     1.2100 ha         1 5EV       0.130000
     47 H15         -1.4220     0.0130    -1.7850 ha         1 5EV       0.152000
     48 H16          1.0800    -0.9560    -4.0040 hc         1 5EV       0.048367
     49 H17          1.4740     0.7690    -3.9830 hc         1 5EV       0.048367
     50 H18         -0.2150     0.2490    -4.0410 hc         1 5EV       0.048367
     51 H19          1.7020    -0.5090     4.3980 hn         1 5EV       0.463800
     52 H20          5.4910     0.5460     6.9320 hn         1 5EV       0.450800
     53 H21          6.9180     2.9090     6.2400 h1         1 5EV       0.038367
     54 H22          7.7900     1.5220     5.5740 h1         1 5EV       0.038367
     55 H23          7.5140     1.6380     7.3170 h1         1 5EV       0.038367
@<TRIPOS>BOND
     1    26    24 1   
     2    23    24 2   
     3    23     1 1   
     4    24    25 1   
     5    22     1 ar  
     6    22    21 ar  
     7     1     2 ar  
     8    25     2 1   
     9    25     4 1   
    10     6     4 ar  
    11     6     7 ar  
    12     2     3 ar  
    13    21    20 ar  
    14     4    10 ar  
    15     7     8 ar  
    16     3    20 ar  
    17    20    27 1   
    18    10    30 1   
    19    10     9 ar  
    20     8     9 ar  
    21    30    14 1   
    22    27     5 1   
    23    19    14 ar  
    24    19    18 ar  
    25    14    15 ar  
    26     5    29 ar  
    27     5    28 ar  
    28    29    13 ar  
    29    18    17 ar  
    30    28    11 ar  
    31    32    31 1   
    32    15    16 ar  
    33    13    31 1   
    34    13    12 ar  
    35    17    16 ar  
    36    11    12 ar  
    37     3    33 1   
    38     6    34 1   
    39     7    35 1   
    40     8    36 1   
    41     9    37 1   
    42    11    38 1   
    43    12    39 1   
    44    15    40 1   
    45    16    41 1   
    46    17    42 1   
    47    18    43 1   
    48    19    44 1   
    49    21    45 1   
    50    22    46 1   
    51    23    47 1   
    52    26    48 1   
    53    26    49 1   
    54    26    50 1   
    55    27    51 1   
    56    31    52 1   
    57    32    53 1   
    58    32    54 1   
    59    32    55 1   
@<TRIPOS>SUBSTRUCTURE
     1 5EV         1 TEMP              0 ****  ****    0 ROOT
