@<TRIPOS>MOLECULE
molecule
   59    63     1     0     0
SMALL
bcc


@<TRIPOS>ATOM
      1 C1           0.0000     0.0000     0.0000 ca         1 5EW       0.973900
      2 C3           0.0370     0.1210    -2.4080 ca         1 5EW       0.182600
      3 C12         -0.9450    -1.7660    -6.3840 ca         1 5EW      -0.111500
      4 C13         -0.8250    -3.1460    -6.2760 ca         1 5EW      -0.048000
      5 C14         -1.9090    -3.9380    -6.6670 ca         1 5EW      -0.138100
      6 C15         -3.0610    -3.3160    -7.1480 ca         1 5EW       0.447200
      7 C17         -2.1290    -1.2250    -6.8730 ca         1 5EW       0.520300
      8 C20          2.0060     0.0000     1.1360 ca         1 5EW       0.520200
      9 C21          1.3190     0.0010     2.3360 ca         1 5EW      -0.501600
     10 C22         -0.0770     0.0010     2.3040 ca         1 5EW       0.763200
     11 C25         -1.8350    -5.4140    -6.5740 cc         1 5EW      -0.188400
     12 C26         -0.9160    -6.1410    -7.3700 c          1 5EW       0.692700
     13 C28         -1.6730    -8.1560    -6.4220 cc         1 5EW       0.016600
     14 C29         -2.5630    -7.5010    -5.6390 cd         1 5EW      -0.246000
     15 C30         -2.6600    -6.1070    -5.7020 cd         1 5EW       0.026800
     16 N2          -0.6760     0.0050    -1.2100 nu         1 5EW      -0.754300
     17 C4          -0.4130    -0.5320    -3.5430 ca         1 5EW      -0.185000
     18 C5           0.2950    -0.4160    -4.7330 ca         1 5EW      -0.009200
     19 C6           1.4650     0.3660    -4.7670 ca         1 5EW      -0.113800
     20 C7           1.9040     1.0190    -3.6130 ca         1 5EW      -0.071000
     21 C8           1.1940     0.8990    -2.4530 ca         1 5EW      -0.145000
     22 C9           1.9660     0.2840    -6.1420 cc         1 5EW      -0.192200
     23 C10          1.1190    -0.5010    -6.8250 cd         1 5EW      -0.039300
     24 N11          0.1120    -0.9300    -5.9990 na         1 5EW      -0.006500
     25 N16         -3.1320    -2.0030    -7.2340 nb         1 5EW      -0.685000
     26 Cl          -2.2890     0.4980    -7.0120 cl         1 5EW      -0.136000
     27 N19          1.3250     0.0000     0.0000 nb         1 5EW      -0.821000
     28 N23         -0.6950     0.0010     1.1270 nb         1 5EW      -0.867000
     29 N27         -0.8590    -7.4820    -7.2740 n          1 5EW      -0.315000
     30 O31         -0.1770    -5.5510    -8.1410 o          1 5EW      -0.651500
     31 C32          0.0940    -8.2260    -8.1010 c3         1 5EW       0.082300
     32 C33         -3.6460    -5.3690    -4.8340 c3         1 5EW      -0.061900
     33 N34         -0.8070     0.0010     3.4810 nu         1 5EW      -0.912900
     34 C35         -0.1150     0.0010     4.7720 c3         1 5EW       0.230100
     35 H1           0.0840    -3.5970    -5.8990 ha         1 5EW       0.167000
     36 H2          -3.9080    -3.9190    -7.4540 h4         1 5EW       0.034100
     37 H3           3.0890    -0.0000     1.1250 h4         1 5EW       0.026100
     38 H4           1.8520     0.0010     3.2790 ha         1 5EW       0.141000
     39 H5           1.5190    -1.9040    -8.3750 hc         1 5EW       0.052700
     40 H6           0.3120    -0.6780    -8.7870 hc         1 5EW       0.052700
     41 H7           2.0270    -0.2480    -8.7340 hc         1 5EW       0.052700
     42 H8          -1.6070    -9.2360    -6.3650 h4         1 5EW       0.155000
     43 H9          -3.2020    -8.0580    -4.9640 ha         1 5EW       0.151000
     44 H10         -1.6750    -0.0500    -1.2260 hn         1 5EW       0.463800
     45 H11         -1.2630    -1.2020    -3.4810 ha         1 5EW       0.129000
     46 H12          2.8010     1.6250    -3.6400 ha         1 5EW       0.132000
     47 H13          1.5240     1.4240    -1.5650 ha         1 5EW       0.155000
     48 H14          2.9300     0.6360    -6.4900 ha         1 5EW       0.154000
     49 H15         -0.0090    -9.2870    -7.9050 h1         1 5EW       0.058367
     50 H16         -0.1070    -8.0310    -9.1470 h1         1 5EW       0.058367
     51 H17          1.1020    -7.9110    -7.8620 h1         1 5EW       0.058367
     52 H18         -3.1420    -4.5560    -4.3260 hc         1 5EW       0.054700
     53 H19         -4.4430    -4.9710    -5.4510 hc         1 5EW       0.054700
     54 H20         -4.0630    -6.0500    -4.1020 hc         1 5EW       0.054700
     55 H21         -1.8070    -0.0110     3.4500 hn         1 5EW       0.450800
     56 H22          0.5060     0.8860     4.8490 h1         1 5EW       0.039367
     57 H23         -0.8440     0.0010     5.5730 h1         1 5EW       0.039367
     58 H24          0.5060    -0.8830     4.8490 h1         1 5EW       0.039367
     59 C24          1.2540    -0.8580    -8.2830 c3         1 5EW      -0.033900
@<TRIPOS>BOND
     1    22    23 2
     2    22    19 1
     3    59    23 1
     4    20    19 ar
     5    20    21 ar
     6    23    24 1
     7    19    18 ar
     8    26     7 1
     9    21     2 ar
    10    24    18 1
    11    24     3 1
    12    18    17 ar
    13     3     7 ar
    14     3     4 ar
    15     2    17 ar
    16     2    16 1
    17     7    25 ar
    18    16     1 1
    19    25     6 ar
    20     4     5 ar
    21    32    15 1
    22     6     5 ar
    23     5    11 1
    24     1    28 ar
    25     1    27 ar
    26    28    10 ar
    27    15    11 2
    28    15    14 1
    29    27     8 ar
    30    11    12 1
    31    34    33 1
    32    10    33 1
    33    10     9 ar
    34    14    13 2
    35     8     9 ar
    36    12    30 2
    37    12    29 1
    38    13    29 1
    39    29    31 1
    40     4    35 1
    41     6    36 1
    42     8    37 1
    43     9    38 1
    44    59    39 1
    45    59    40 1
    46    59    41 1
    47    13    42 1
    48    14    43 1
    49    16    44 1
    50    17    45 1
    51    20    46 1
    52    21    47 1
    53    22    48 1
    54    31    49 1
    55    31    50 1
    56    31    51 1
    57    32    52 1
    58    32    53 1
    59    32    54 1
    60    33    55 1
    61    34    56 1
    62    34    57 1
    63    34    58 1
@<TRIPOS>SUBSTRUCTURE
     1 5EW         1 TEMP              0 ****  ****    0 ROOT
