@<TRIPOS>MOLECULE
molecule
   73    75     1     0     0
SMALL
bcc


@<TRIPOS>ATOM
      1 C23          0.0000     0.0000     0.0000 cy         1 5EX      -0.116700
      2 C22         -2.8260    -1.4440    -1.9380 c          1 5EX       0.594100
      3 C21         -0.6130    -0.9020    -1.0720 c3         1 5EX       0.123000
      4 C20         -4.3110    -1.2820    -1.9350 c          1 5EX       0.594100
      5 C24          1.5390     0.0000     0.0000 cy         1 5EX      -0.094400
      6 C26        -10.2920    -7.5470    -1.9960 c3         1 5EX      -0.094400
      7 C27          1.4600     0.0000     1.5360 cy         1 5EX      -0.102400
      8 C10         -9.1370    -4.4000    -3.8840 c3         1 5EX       0.210900
      9 C7          -5.3780     2.9520    -1.8920 ca         1 5EX      -0.125000
     10 C5          -5.1060     1.0930    -3.3760 ca         1 5EX      -0.116500
     11 C6          -4.6110     2.2490    -2.8020 ca         1 5EX      -0.120500
     12 C2          -6.5240    -1.8240    -2.8000 c3         1 5EX       0.045700
     13 C3          -6.9070    -0.6210    -3.6650 c3         1 5EX      -0.047100
     14 C4          -6.3670     0.6390    -3.0390 ca         1 5EX      -0.073300
     15 C11         -9.2410    -5.3570    -2.6940 c3         1 5EX      -0.104400
     16 C12         -9.7300    -6.7220    -3.1780 c3         1 5EX      -0.166700
     17 C13         -8.5710    -7.5490    -3.6890 c          1 5EX       0.701500
     18 C14        -10.5160    -4.1110    -4.4160 c2         1 5EX      -0.237200
     19 C15        -10.8200    -4.4120    -5.6760 ce         1 5EX      -0.183200
     20 C16         -9.9710    -5.3410    -6.4340 c          1 5EX       0.685300
     21 C17         -7.1650    -3.0680    -3.3570 c          1 5EX       0.637100
     22 O1          -7.6930    -7.1400    -4.4190 o          1 5EX      -0.586500
     23 C8          -6.6370     2.4960    -1.5500 ca         1 5EX      -0.120500
     24 O2         -10.1590    -5.4990    -7.7600 os         1 5EX      -0.423900
     25 C9          -7.1320     1.3390    -2.1240 ca         1 5EX      -0.116500
     26 N1          -8.6540    -8.8050    -3.2140 ns         1 5EX      -0.597900
     27 C19         -9.6460    -6.4770    -9.9300 c3         1 5EX      -0.097100
     28 O3          -9.0980    -5.9680    -5.8660 o          1 5EX      -0.533000
     29 N2          -5.0680    -1.9830    -2.8020 ns         1 5EX      -0.543900
     30 C25         -9.8390    -8.9770    -2.3660 c3         1 5EX       0.096000
     31 O4          -6.4740    -3.9960    -3.7210 o          1 5EX      -0.584100
     32 O21         -4.8370    -0.5190    -1.1510 o          1 5EX      -0.603100
     33 O5          -2.3000    -2.2070    -2.7210 o          1 5EX      -0.601100
     34 N6          -2.0700    -0.7420    -1.0700 ns         1 5EX      -0.558900
     35 C28          0.0790    -0.6600     1.3870 cy         1 5EX      -0.094400
     36 H1          -0.4180     0.9990     0.0350 hc         1 5EX       0.073700
     37 H2          -0.2210    -0.6250    -2.0440 h1         1 5EX       0.056700
     38 H3          -0.3620    -1.9340    -0.8630 h1         1 5EX       0.056700
     39 H4           1.9630    -0.9120    -0.4030 hc         1 5EX       0.056700
     40 H5           1.9620     0.9120    -0.4030 hc         1 5EX       0.056700
     41 H7          -9.8480    -7.2310    -1.0600 hc         1 5EX       0.059700
     42 H8           1.4110     0.9970     1.9570 hc         1 5EX       0.055200
     43 H9           2.1930    -0.6510     1.9970 hc         1 5EX       0.055200
     44 H10         -9.4030    -7.4200    -8.0140 h1         1 5EX       0.054200
     45 H11         -8.2550    -6.1110    -8.3330 h1         1 5EX       0.054200
     46 H12         -8.5380    -4.8560    -4.6630 h1         1 5EX       0.172700
     47 H13         -4.9900     3.8580    -1.4420 ha         1 5EX       0.125000
     48 H14         -4.5050     0.5420    -4.0890 ha         1 5EX       0.126000
     49 H15         -3.6230     2.6050    -3.0680 ha         1 5EX       0.126000
     50 H16         -6.8680    -1.6640    -1.7860 h1         1 5EX       0.095700
     51 H17         -6.4870    -0.7400    -4.6560 hc         1 5EX       0.057700
     52 H18         -7.9860    -0.5560    -3.7350 hc         1 5EX       0.057700
     53 H19         -9.9410    -4.9580    -1.9700 hc         1 5EX       0.071200
     54 H20         -8.2670    -5.4650    -2.2320 hc         1 5EX       0.071200
     55 H21        -10.4820    -6.6100    -3.9500 hc         1 5EX       0.090700
     56 H22        -10.3580    -5.0860    -3.9720 ha         1 5EX       0.138000
     57 H24         -9.9920    -3.9810    -6.2260 ha         1 5EX       0.066000
     58 H26         -7.2370     3.0450    -0.8350 ha         1 5EX       0.126000
     59 H27         -8.1200     0.9830    -1.8580 ha         1 5EX       0.126000
     60 H28         -7.9920    -9.5290    -3.4130 hn         1 5EX       0.338500
     61 H29         -9.5410    -5.4870   -10.3570 hc         1 5EX       0.050033
     62 H30        -10.6760    -6.8010   -10.0160 hc         1 5EX       0.050033
     63 H31         -9.0040    -7.1690   -10.4620 hc         1 5EX       0.050033
     64 H32         -4.6360    -2.6270    -3.4360 hn         1 5EX       0.359500
     65 H33         -9.5800    -9.5290    -1.4700 h1         1 5EX       0.044200
     66 H34        -10.6210    -9.4860    -2.9160 h1         1 5EX       0.044200
     67 H36         -2.5060    -0.1450    -0.3950 hn         1 5EX       0.336500
     68 H37          0.1280    -1.7410     1.3410 hc         1 5EX       0.056700
     69 H38         -0.6540    -0.2700     2.0840 hc         1 5EX       0.056700
     70 N           -8.5080    -3.1500    -3.4510 ns         1 5EX      -0.594900
     71 H6         -11.3730    -7.4830    -1.9620 hc         1 5EX       0.059700
     72 C18         -9.2840    -6.4330    -8.4440 c3         1 5EX       0.150400
     73 H35         -9.0750    -2.3670    -3.1950 hn         1 5EX       0.325500
@<TRIPOS>BOND
     1    28    20 2   
     2    20    19 1   
     3    20    24 1   
     4    27    72 1   
     5    72    24 1   
     6    19    18 2   
     7    18     8 1   
     8    15     8 1   
     9    15    16 1   
    10     8    70 1   
    11    22    17 2   
    12    17    16 1   
    13    17    26 1   
    14    70    21 1   
    15    16     6 1   
    16     6    30 1   
    17    26    30 1   
    18    31    21 2   
    19    21    12 1   
    20    13    12 1   
    21    13    14 1   
    22    12    29 1   
    23    14    10 ar  
    24    14    25 ar  
    25    10    11 ar  
    26    32     4 2   
    27    25    23 ar  
    28    29     4 1   
    29     4     2 1   
    30    11     9 ar  
    31    23     9 ar  
    32     2    33 2   
    33     2    34 1   
    34     3    34 1   
    35     3     1 1   
    36     1     5 1   
    37     1    35 1   
    38     5     7 1   
    39     7    35 1   
    40     1    36 1   
    41     3    37 1   
    42     3    38 1   
    43     5    39 1   
    44     5    40 1   
    45     6    71 1   
    46     6    41 1   
    47     7    42 1   
    48     7    43 1   
    49    72    44 1   
    50    72    45 1   
    51     8    46 1   
    52     9    47 1   
    53    10    48 1   
    54    11    49 1   
    55    12    50 1   
    56    13    51 1   
    57    13    52 1   
    58    15    53 1   
    59    15    54 1   
    60    16    55 1   
    61    18    56 1   
    62    19    57 1   
    63    23    58 1   
    64    25    59 1   
    65    26    60 1   
    66    27    61 1   
    67    27    62 1   
    68    27    63 1   
    69    29    64 1   
    70    30    65 1   
    71    30    66 1   
    72    70    73 1   
    73    34    67 1   
    74    35    68 1   
    75    35    69 1   
@<TRIPOS>SUBSTRUCTURE
     1 5EX         1 TEMP              0 ****  ****    0 ROOT
