@<TRIPOS>MOLECULE
5EX
   73    75     1     0     0
SMALL
bcc


@<TRIPOS>ATOM
      1 C23          0.0000     0.0000     0.0000 cy         1 5EX      -0.093700
      2 C22         -2.8260    -1.4440    -1.9380 c          1 5EX       0.501100
      3 C21         -0.6130    -0.9020    -1.0720 c3         1 5EX       0.055000
      4 C20         -4.3110    -1.2820    -1.9350 c          1 5EX       0.500100
      5 C24          1.5390     0.0000     0.0000 cy         1 5EX      -0.037400
      6 C26        -10.2920    -7.5470    -1.9960 c3         1 5EX      -0.034400
      7 C27          1.4600     0.0000     1.5360 cy         1 5EX      -0.043400
      8 C10         -9.1370    -4.4000    -3.8840 c3         1 5EX      -0.023100
      9 C7          -5.3780     2.9520    -1.8920 ca         1 5EX      -0.098000
     10 C5          -5.1060     1.0930    -3.3760 ca         1 5EX      -0.090500
     11 C6          -4.6110     2.2490    -2.8020 ca         1 5EX      -0.092500
     12 C2          -6.5240    -1.8240    -2.8000 c3         1 5EX      -0.061300
     13 C3          -6.9070    -0.6210    -3.6650 c3         1 5EX       0.021900
     14 C4          -6.3670     0.6390    -3.0390 ca         1 5EX      -0.082300
     15 C11         -9.2410    -5.3570    -2.6940 c3         1 5EX      -0.004400
     16 C12         -9.7300    -6.7220    -3.1780 c3         1 5EX      -0.132700
     17 C13         -8.5710    -7.5490    -3.6890 c          1 5EX       0.618500
     18 C14        -10.5160    -4.1110    -4.4160 c2         1 5EX      -0.072200
     19 C15        -10.8200    -4.4120    -5.6760 ce         1 5EX      -0.184200
     20 C16         -9.9710    -5.3410    -6.4340 c          1 5EX       0.674300
     21 C17         -7.1650    -3.0680    -3.3570 c          1 5EX       0.557100
     22 O1          -7.6930    -7.1400    -4.4190 o          1 5EX      -0.616500
     23 C8          -6.6370     2.4960    -1.5500 ca         1 5EX      -0.092500
     24 O2         -10.1590    -5.4990    -7.7600 os         1 5EX      -0.412900
     25 C9          -7.1320     1.3390    -2.1240 ca         1 5EX      -0.090500
     26 N1          -8.6540    -8.8050    -3.2140 ns         1 5EX      -0.222900
     27 C19         -9.6460    -6.4770    -9.9300 c3         1 5EX      -0.003100
     28 O3          -9.0980    -5.9680    -5.8660 o          1 5EX      -0.538000
     29 N2          -5.0680    -1.9830    -2.8020 ns         1 5EX      -0.129900
     30 C25         -9.8390    -8.9770    -2.3660 c3         1 5EX       0.046000
     31 O4          -6.4740    -3.9960    -3.7210 o          1 5EX      -0.612100
     32 O21         -4.8370    -0.5190    -1.1510 o          1 5EX      -0.659100
     33 O5          -2.3000    -2.2070    -2.7210 o          1 5EX      -0.649100
     34 N6          -2.0700    -0.7420    -1.0700 ns         1 5EX      -0.157900
     35 C28          0.0790    -0.6600     1.3870 cy         1 5EX      -0.037400
     36 H1          -0.4180     0.9990     0.0350 hc         1 5EX       0.048700
     37 H2          -0.3620    -1.9340    -0.8630 h1         1 5EX       0.030200
     38 H3          -0.2210    -0.6250    -2.0440 h1         1 5EX       0.030200
     39 H4           1.9620     0.9120    -0.4030 hc         1 5EX       0.027700
     40 H5           1.9630    -0.9120    -0.4030 hc         1 5EX       0.027700
     41 H7         -11.3730    -7.4830    -1.9620 hc         1 5EX       0.025200
     42 H8           2.1930    -0.6510     1.9970 hc         1 5EX       0.024700
     43 H9           1.4110     0.9970     1.9570 hc         1 5EX       0.024700
     44 H10         -8.2550    -6.1110    -8.3330 h1         1 5EX       0.013200
     45 H11         -9.4030    -7.4200    -8.0140 h1         1 5EX       0.013200
     46 H12         -8.5380    -4.8560    -4.6630 h1         1 5EX       0.153700
     47 H13         -4.9900     3.8580    -1.4420 ha         1 5EX       0.098000
     48 H14         -4.5050     0.5420    -4.0890 ha         1 5EX       0.100500
     49 H15         -3.6230     2.6050    -3.0680 ha         1 5EX       0.099000
     50 H16         -6.8680    -1.6640    -1.7860 h1         1 5EX       0.067700
     51 H17         -6.4870    -0.7400    -4.6560 hc         1 5EX       0.024700
     52 H18         -7.9860    -0.5560    -3.7350 hc         1 5EX       0.024700
     53 H19         -8.2670    -5.4650    -2.2320 hc         1 5EX       0.023200
     54 H20         -9.9410    -4.9580    -1.9700 hc         1 5EX       0.023200
     55 H21        -10.4820    -6.6100    -3.9500 hc         1 5EX       0.055700
     56 H22        -11.1540    -3.4280    -3.8670 ha         1 5EX       0.099000
     57 H24        -11.8140    -4.1940    -6.0470 ha         1 5EX       0.115000
     58 H26         -7.2370     3.0450    -0.8350 ha         1 5EX       0.099000
     59 H27         -8.1200     0.9830    -1.8580 ha         1 5EX       0.100500
     60 H28         -7.9920    -9.5290    -3.4130 hn         1 5EX       0.192500
     61 H29         -8.9800    -7.1600   -10.4440 hc         1 5EX       0.009700
     62 H30         -9.5240    -5.4800   -10.3360 hc         1 5EX       0.009700
     63 H31        -10.6710    -6.8000   -10.0670 hc         1 5EX       0.009700
     64 H32         -4.6360    -2.6290    -3.4340 hn         1 5EX       0.220500
     65 H33        -10.6210    -9.4860    -2.9160 h1         1 5EX       0.010200
     66 H34         -9.5800    -9.5290    -1.4700 h1         1 5EX       0.010200
     67 H36         -2.5060    -0.1430    -0.3970 hn         1 5EX       0.195500
     68 H37          0.1280    -1.7410     1.3410 hc         1 5EX       0.027700
     69 H38         -0.6540    -0.2700     2.0840 hc         1 5EX       0.027700
     70 N           -8.5080    -3.1500    -3.4510 ns         1 5EX      -0.185900
     71 H6          -9.8480    -7.2310    -1.0600 hc         1 5EX       0.025200
     72 C18         -9.2840    -6.4330    -8.4440 c3         1 5EX       0.224400
     73 H35         -9.0750    -2.3670    -3.1950 hn         1 5EX       0.167500
@<TRIPOS>BOND
     1     1     3 1   
     2     1     5 1   
     3     1    35 1   
     4     1    36 1   
     5     2     4 1   
     6     2    33 2   
     7     2    34 1   
     8     3    34 1   
     9     3    37 1   
    10     3    38 1   
    11     4    29 1   
    12     4    32 2   
    13     5     7 1   
    14     5    39 1   
    15     5    40 1   
    16     6    16 1   
    17     6    30 1   
    18     6    41 1   
    19     6    71 1   
    20     7    35 1   
    21     7    42 1   
    22     7    43 1   
    23     8    15 1   
    24     8    18 1   
    25     8    46 1   
    26     8    70 1   
    27     9    11 ar  
    28     9    23 ar  
    29     9    47 1   
    30    10    11 ar  
    31    10    14 ar  
    32    10    48 1   
    33    11    49 1   
    34    12    13 1   
    35    12    21 1   
    36    12    29 1   
    37    12    50 1   
    38    13    14 1   
    39    13    51 1   
    40    13    52 1   
    41    14    25 ar  
    42    15    16 1   
    43    15    53 1   
    44    15    54 1   
    45    16    17 1   
    46    16    55 1   
    47    17    22 2   
    48    17    26 1   
    49    18    19 2   
    50    18    56 1   
    51    19    20 1   
    52    19    57 1   
    53    20    24 1   
    54    20    28 2   
    55    21    31 2   
    56    21    70 1   
    57    23    25 ar  
    58    23    58 1   
    59    24    72 1   
    60    25    59 1   
    61    26    30 1   
    62    26    60 1   
    63    27    61 1   
    64    27    62 1   
    65    27    63 1   
    66    27    72 1   
    67    29    64 1   
    68    30    65 1   
    69    30    66 1   
    70    34    67 1   
    71    35    68 1   
    72    35    69 1   
    73    44    72 1   
    74    45    72 1   
    75    70    73 1   
@<TRIPOS>SUBSTRUCTURE
     1 5EX         1 TEMP              0 ****  ****    0 ROOT
