@<TRIPOS>MOLECULE
5EY
   47    48     1     0     0
SMALL
bcc


@<TRIPOS>ATOM
      1 C3         -0.7730    2.2140    1.2490 c3        1 5EY     -0.277000
      2 C2          3.7300   -0.2570    0.4870 c1        1 5EY      0.095000
      3 C4          0.4990    1.7820    1.7260 c1        1 5EY     -0.085000
      4 C12        -3.1360   -1.8540    2.8540 c3        1 5EY     -0.070000
      5 C1          2.8020    0.3600    1.1720 c2        1 5EY     -0.415000
      6 C13        -4.3090   -1.9060    1.9510 c2        1 5EY     -0.244000
      7 C5          0.7470    0.5790    2.4450 c2        1 5EY     -0.047000
      8 C11        -2.6940   -0.4530    3.1350 c2        1 5EY      0.010000
      9 C16        -3.7190    0.5960    3.2090 c2        1 5EY     -0.116000
     10 C6          1.8950   -0.1210    2.1960 c2        1 5EY     -0.004000
     11 C14        -5.1050   -0.8260    1.7780 c2        1 5EY      0.061000
     12 C15        -4.8680    0.4270    2.5030 c2        1 5EY      0.038000
     13 C9         -0.1860    0.2030    3.5180 c2        1 5EY     -0.162000
     14 C10        -1.4260   -0.1510    3.2920 c1        1 5EY     -0.118000
     15 C17        -3.4040    1.7500    4.1430 c2        1 5EY      0.377000
     16 C26        -9.8340    3.2030    0.2520 c2        1 5EY      0.328000
     17 C7          2.2440   -1.3760    2.8980 c3        1 5EY     -0.189000
     18 C22        -7.2070    0.0050    1.0730 c3        1 5EY     -0.052000
     19 C8          0.3320    0.3210    4.9070 c1        1 5EY      0.045000
     20 C21        -6.6590    1.4030    1.3210 c3        1 5EY     -0.005000
     21 C24        -7.7890    2.4050    1.5330 c3        1 5EY     -0.145000
     22 O19        -4.1750    1.9820    5.1060 o         1 5EY     -0.562500
     23 O28       -10.2450    4.2370   -0.3520 o         1 5EY     -0.591000
     24 O18        -2.3090    2.3850    3.9730 o         1 5EY     -0.562500
     25 O27       -10.6020    2.3900    0.8450 o         1 5EY     -0.591000
     26 O23        -6.1500   -0.9430    0.8770 os        1 5EY     -0.234000
     27 O20        -5.8560    1.3970    2.5210 os        1 5EY     -0.172000
     28 O29        -0.2840    1.1180    5.7120 oh        1 5EY     -0.189000
     29 H3         -1.4160    1.4090    0.8080 hc        1 5EY      0.138667
     30 HA         -0.6900    3.0640    0.5300 hc        1 5EY      0.138667
     31 H4         -1.3430    2.5780    2.1820 hc        1 5EY      0.138667
     32 H1          2.6450    1.4560    0.9520 ha        1 5EY      0.232000
     33 H13        -4.5090   -2.8540    1.4380 ha        1 5EY      0.125000
     34 H10        -2.2900   -2.4410    2.4060 hc        1 5EY      0.085000
     35 H71C        1.8710   -1.3420    3.9550 hc        1 5EY      0.087333
     36 H72C        3.3510   -1.5310    2.9090 hc        1 5EY      0.087333
     37 H8          1.7710   -2.2510    2.3840 hc        1 5EY      0.087333
     38 H251       -7.7770    3.8280   -0.1030 hc        1 5EY      0.060500
     39 H252       -8.1740    2.1340   -0.5890 hc        1 5EY      0.060500
     40 H21        -6.0000    1.7160    0.4650 h1        1 5EY      0.086000
     41 H29        -1.0790    1.6010    5.3510 ho        1 5EY      0.257000
     42 H241       -7.4030    3.2580    2.1490 hc        1 5EY      0.107000
     43 H242       -8.6190    1.9190    2.1130 hc        1 5EY      0.107000
     44 H22A       -7.7940   -0.0390    0.1190 h1        1 5EY      0.109500
     45 H12        -3.4050   -2.3510    3.8300 hc        1 5EY      0.085000
     46 H22B       -7.8370   -0.3330    1.9360 h1        1 5EY      0.109500
     47 C25        -8.3250    2.9050    0.2110 c3        1 5EY     -0.223000
@<TRIPOS>BOND
     1    1    3 1   
     2    1   29 1   
     3    1   30 1   
     4    1   31 1   
     5    2    5 1   
     6    3    7 1   
     7    4    6 1   
     8    4    8 1   
     9    4   34 1   
    10    4   45 1   
    11    5   10 1   
    12    5   32 1   
    13    6   11 1   
    14    6   33 1   
    15    7   10 1   
    16    7   13 1   
    17    8    9 1   
    18    8   14 1   
    19    9   12 1   
    20    9   15 1   
    21   10   17 1   
    22   11   12 1   
    23   11   26 1   
    24   12   27 1   
    25   13   14 1   
    26   13   19 1   
    27   15   22 1   
    28   15   24 1   
    29   16   23 1   
    30   16   25 1   
    31   16   47 1   
    32   17   35 1   
    33   17   36 1   
    34   17   37 1   
    35   18   20 1   
    36   18   26 1   
    37   18   44 1   
    38   18   46 1   
    39   19   28 1   
    40   20   21 1   
    41   20   27 1   
    42   20   40 1   
    43   21   42 1   
    44   21   43 1   
    45   21   47 1   
    46   28   41 1   
    47   38   47 1   
    48   39   47 1   
@<TRIPOS>SUBSTRUCTURE
     1 5EY         1 TEMP              0 ****  ****    0 ROOT
