@<TRIPOS>MOLECULE
molecule
   47    50     1     0     0
SMALL
bcc


@<TRIPOS>ATOM
      1 C3           0.0000     0.0000     0.0000 ca         1 5EY      -0.133000
      2 C2           1.3840     0.0000     0.0000 ca         1 5EY      -0.156000
      3 C4          -0.6910    -0.0010     1.1920 ca         1 5EY      -0.106000
      4 C12         -2.7340    -1.3370     2.2830 ca         1 5EY      -0.141000
      5 C1           2.0800     0.0000     1.1960 ca         1 5EY      -0.131000
      6 C13         -3.7150    -1.5720     1.3430 ca         1 5EY      -0.176000
      7 C5           0.0050    -0.0010     2.4090 ca         1 5EY      -0.008800
      8 C11         -2.8440    -0.2540     3.1550 ca         1 5EY      -0.102800
      9 C16         -3.9670     0.5980     3.0710 ca         1 5EY      -0.034600
     10 C6           1.3990    -0.0010     2.3990 ca         1 5EY      -0.107300
     11 C14         -4.8230    -0.7400     1.2510 ca         1 5EY       0.048100
     12 C15         -4.9560     0.3450     2.1110 ca         1 5EY       0.086100
     13 C9          -0.5040    -0.0010     3.7920 ce         1 5EY      -0.146400
     14 C10         -1.7980    -0.0020     4.1570 cf         1 5EY       0.038800
     15 C17         -4.0980     1.7430     3.9830 c          1 5EY       0.888200
     16 C26         -9.2400     3.9930     1.4830 c          1 5EY       0.896600
     17 C7           1.9170    -0.0010     3.8170 c3         1 5EY      -0.055100
     18 C22         -7.0450    -0.3690     0.4850 c3         1 5EY       0.095400
     19 C8           0.6810    -0.0000     4.7270 c3         1 5EY       0.197300
     20 C21         -6.8090     1.1070     0.8340 c3         1 5EY       0.101100
     21 C24         -8.1520     1.8070     1.0480 c3         1 5EY      -0.054400
     22 O19         -4.7270     1.5940     5.1670 o          1 5EY      -0.819800
     23 O28         -9.2790     5.3170     1.7010 o          1 5EY      -0.870300
     24 O18         -3.6400     2.8250     3.6720 o          1 5EY      -0.819800
     25 O27        -10.2660     3.3540     1.4570 o          1 5EY      -0.870300
     26 O23         -5.7700    -0.9960     0.3060 os         1 5EY      -0.352900
     27 O20         -6.0370     1.1640     2.0390 os         1 5EY      -0.265900
     28 O29          0.6670     1.1720     5.5430 oh         1 5EY      -0.577800
     29 H3          -0.5410     0.0000    -0.9390 ha         1 5EY       0.123000
     30 HA           1.9240     0.0000    -0.9390 ha         1 5EY       0.107000
     31 H4          -1.7740    -0.0010     1.1880 ha         1 5EY       0.181000
     32 H1           3.1630     0.0000     1.1890 ha         1 5EY       0.104000
     33 H13         -3.6210    -2.4160     0.6700 ha         1 5EY       0.115000
     34 H10         -2.0670     0.1410     5.1970 ha         1 5EY       0.162000
     35 H71C         2.5080    -0.8900     3.9960 hc         1 5EY       0.043700
     36 H72C         2.5080     0.8890     3.9950 hc         1 5EY       0.043700
     37 H8           0.6710    -0.8920     5.3420 h1         1 5EY       0.023700
     38 H251        -7.4220     3.7250     0.4070 hc         1 5EY       0.050200
     39 H252        -7.2930     3.4430     2.1480 hc         1 5EY       0.050200
     40 H21         -6.2640     1.5880     0.0310 h1         1 5EY       0.049700
     41 H29          1.0750     0.9830     6.3720 ho         1 5EY       0.379000
     42 H241        -8.7760     1.6680     0.1740 hc         1 5EY       0.051700
     43 H242        -8.6450     1.3850     1.9150 hc         1 5EY       0.051700
     44 H22A        -7.6170    -0.4390    -0.4320 h1         1 5EY       0.054700
     45 H12         -1.8740    -1.9940     2.3440 ha         1 5EY       0.116000
     46 H22B        -7.5790    -0.8530     1.2930 h1         1 5EY       0.054700
     47 C25         -7.9170     3.3030     1.2730 c3         1 5EY      -0.182400
@<TRIPOS>BOND
     1     1     2 ar  
     2     1     3 ar  
     3     2     5 ar  
     4     3     7 ar  
     5     4     6 ar  
     6     4     8 ar  
     7     5    10 ar  
     8     6    11 ar  
     9     7    10 ar  
    10     7    13 1   
    11     8     9 ar  
    12     8    14 1   
    13     9    12 ar  
    14     9    15 1   
    15    10    17 1   
    16    11    12 ar  
    17    11    26 1   
    18    12    27 1   
    19    13    14 2   
    20    13    19 1   
    21    15    22 1   
    22    15    24 1   
    23    16    47 1   
    24    16    23 1   
    25    16    25 1   
    26    17    19 1   
    27    18    20 1   
    28    18    26 1   
    29    19    28 1   
    30    20    21 1   
    31    20    27 1   
    32    47    21 1   
    33     1    29 1   
    34     2    30 1   
    35     3    31 1   
    36     5    32 1   
    37     6    33 1   
    38    14    34 1   
    39    17    35 1   
    40    17    36 1   
    41    19    37 1   
    42    47    38 1   
    43    47    39 1   
    44    20    40 1   
    45    28    41 1   
    46    21    42 1   
    47    21    43 1   
    48    18    44 1   
    49     4    45 1   
    50    18    46 1   
@<TRIPOS>SUBSTRUCTURE
     1 5EY         1 TEMP              0 ****  ****    0 ROOT
