@<TRIPOS>MOLECULE
molecule
   34    36     1     0     0
SMALL
bcc


@<TRIPOS>ATOM
      1 N1           0.0000     0.0000     0.0000 n7         1 5EZ      -0.810200
      2 C2           1.4750     0.0000     0.0000 c3         1 5EZ       0.154800
      3 C3          -0.4700     0.0260     1.4010 c3         1 5EZ       0.149800
      4 C4           1.9320     0.0000     1.4740 c3         1 5EZ      -0.095700
      5 C5           0.6990    -0.5720     2.2230 c3         1 5EZ      -0.085400
      6 C6           3.1490    -0.9070     1.6620 c3         1 5EZ       0.149400
      7 O7           4.2680    -0.3560     0.9650 os         1 5EZ      -0.321900
      8 C8           7.7550    -1.2320     0.3510 ca         1 5EZ      -0.016000
      9 C9           6.5680    -0.5580     0.3100 ca         1 5EZ      -0.023600
     10 C11          5.4470    -1.0420     0.9860 ca         1 5EZ       0.188100
     11 C13          5.5160    -2.2180     1.7120 ca         1 5EZ      -0.236000
     12 C14          7.8510    -2.4210     1.0760 ca         1 5EZ      -0.193600
     13 C15          6.7190    -2.9190     1.7650 ca         1 5EZ       0.042200
     14 C16          6.8560    -4.1680     2.5170 cc         1 5EZ      -0.216200
     15 C17          8.0390    -4.8020     2.5330 cd         1 5EZ       0.004600
     16 N18          9.1340    -4.3240     1.8690 ns         1 5EZ      -0.439100
     17 C19          9.1000    -3.1830     1.1520 c          1 5EZ       0.713100
     18 O21         10.0970    -2.7900     0.5740 o          1 5EZ      -0.636500
     19 H1          -0.3340     0.8130    -0.4790 hn         1 5EZ       0.350800
     20 H21C         1.8420     0.8890    -0.4990 h1         1 5EZ       0.053200
     21 H22C         1.8420    -0.8890    -0.4990 h1         1 5EZ       0.053200
     22 H31C        -1.3570    -0.5850     1.5110 h1         1 5EZ       0.042700
     23 H32C        -0.6650     1.0450     1.7130 h1         1 5EZ       0.042700
     24 H4           2.1440     1.0090     1.8060 hc         1 5EZ       0.070700
     25 H51C         0.6720    -0.2180     3.2460 hc         1 5EZ       0.054700
     26 H52C         0.6880    -1.6540     2.1780 hc         1 5EZ       0.054700
     27 H61C         3.3830    -0.9820     2.7170 h1         1 5EZ       0.041200
     28 H62C         2.9290    -1.8930     1.2700 h1         1 5EZ       0.041200
     29 H8           8.6180    -0.8460    -0.1780 ha         1 5EZ       0.173000
     30 H131         4.6980    -2.5020     2.3630 ha         1 5EZ       0.147000
     31 H16          6.0100    -4.5780     3.0550 ha         1 5EZ       0.150000
     32 H17          8.1300    -5.7250     3.0920 h4         1 5EZ       0.150000
     33 H18          9.9910    -4.8400     1.9170 hn         1 5EZ       0.336500
     34 Cl2          6.4520     0.9210    -0.5920 cl         1 5EZ      -0.089400
@<TRIPOS>BOND
     1     1     2 1   
     2     1     3 1   
     3     2     4 1   
     4     3     5 1   
     5     4     5 1   
     6     4     6 1   
     7     6     7 1   
     8     7    10 1   
     9     8     9 ar  
    10     8    12 ar  
    11     9    10 ar  
    12     9    34 1   
    13    10    11 ar  
    14    11    13 ar  
    15    12    13 ar  
    16    12    17 1   
    17    13    14 1   
    18    14    15 2   
    19    15    16 1   
    20    16    17 1   
    21    17    18 2   
    22     1    19 1   
    23     2    20 1   
    24     2    21 1   
    25     3    22 1   
    26     3    23 1   
    27     4    24 1   
    28     5    25 1   
    29     5    26 1   
    30     6    27 1   
    31     6    28 1   
    32     8    29 1   
    33    11    30 1   
    34    14    31 1   
    35    15    32 1   
    36    16    33 1   
@<TRIPOS>SUBSTRUCTURE
     1 5EZ         1 TEMP              0 ****  ****    0 ROOT
