@<TRIPOS>MOLECULE
molecule
   30    32     1     0     0
SMALL
bcc


@<TRIPOS>ATOM
      1 C2'          0.0000     0.0000     0.0000 c3         1 5F1      -0.152400
      2 C3'          1.5480     0.0000     0.0000 c3         1 5F1       0.112100
      3 O3'          2.0580    -1.1760    -0.6310 oh         1 5F1      -0.591800
      4 C4'          1.8730     0.0000     1.5160 c3         1 5F1       0.101100
      5 C5'          3.2620     0.5900     1.7700 c3         1 5F1       0.174900
      6 F19          3.5770     0.4750     3.1280 f          1 5F1      -0.235300
      7 O4'          0.8460     0.8440     2.0830 os         1 5F1      -0.406600
      8 C1'         -0.3770     0.5330     1.3950 c3         1 5F1       0.261800
      9 N9          -1.1960     1.7410     1.2630 na         1 5F1      -0.259000
     10 C8          -0.7470     3.0270     1.2890 cc         1 5F1       0.433700
     11 N7          -1.7450     3.8500     1.1430 nd         1 5F1      -0.585100
     12 C5          -2.8940     3.1460     1.0080 ca         1 5F1      -0.194200
     13 C4          -2.5570     1.7830     1.0890 ca         1 5F1       0.464800
     14 N3          -3.5200     0.8730     0.9870 nb         1 5F1      -0.789000
     15 C2          -4.7730     1.2380     0.8200 ca         1 5F1       0.731900
     16 N1          -5.1390     2.5040     0.7440 nb         1 5F1      -0.818000
     17 C6          -4.2460     3.4850     0.8340 ca         1 5F1       0.784200
     18 N6          -4.6390     4.8090     0.7530 nv         1 5F1      -1.005500
     19 H2'1        -0.3780     0.6600    -0.7710 hc         1 5F1       0.082200
     20 H2'2        -0.3780    -1.0060    -0.1350 hc         1 5F1       0.082200
     21 H3'          1.9300     0.8960    -0.4730 h1         1 5F1       0.051700
     22 HA           2.3210    -0.9710    -1.5130 ho         1 5F1       0.412000
     23 H4'          1.8000    -1.0040     1.9170 h1         1 5F1       0.087700
     24 H5'1         3.9950     0.0510     1.1820 h1         1 5F1       0.056200
     25 H5'2         3.2680     1.6350     1.4850 h1         1 5F1       0.056200
     26 H1'         -0.9210    -0.2280     1.9420 h2         1 5F1       0.096700
     27 H8           0.2880     3.3210     1.4150 h5         1 5F1       0.086800
     28 H2          -5.5340     0.4700     0.7410 h5         1 5F1       0.062100
     29 H6N1        -5.5200     5.0930     1.1350 hn         1 5F1       0.448800
     30 H6N2        -4.0570     5.4760     0.2870 hn         1 5F1       0.448800
@<TRIPOS>BOND
     1     1     2 1   
     2     1     8 1   
     3     1    19 1   
     4     1    20 1   
     5     2     3 1   
     6     2     4 1   
     7     2    21 1   
     8     3    22 1   
     9     4     5 1   
    10     4     7 1   
    11     4    23 1   
    12     5     6 1   
    13     5    24 1   
    14     5    25 1   
    15     7     8 1   
    16     8     9 1   
    17     8    26 1   
    18     9    10 1   
    19     9    13 1   
    20    10    11 2   
    21    10    27 1   
    22    11    12 1   
    23    12    13 ar  
    24    12    17 ar  
    25    13    14 ar  
    26    14    15 ar  
    27    15    16 ar  
    28    15    28 1   
    29    16    17 ar  
    30    17    18 1   
    31    18    29 1   
    32    18    30 1   
@<TRIPOS>SUBSTRUCTURE
     1 5F1         1 TEMP              0 ****  ****    0 ROOT
