@<TRIPOS>MOLECULE
5F2
   59    60     1     0     0
SMALL
bcc


@<TRIPOS>ATOM
      1 N1           0.0000     0.0000     0.0000 ns         1 5F2      -0.209900
      2 C2          -0.5230     6.3760     2.7890 c3         1 5F2      -0.028300
      3 C3          -1.1740     6.9810     4.0340 c3         1 5F2      -0.001100
      4 C4          -0.9220     8.4660     4.0610 ca         1 5F2      -0.089300
      5 C5          -1.8160     9.3300     3.4560 ca         1 5F2      -0.102000
      6 C6          -1.5850    10.6930     3.4800 ca         1 5F2      -0.099500
      7 C7          -0.4600    11.1920     4.1100 ca         1 5F2      -0.106000
      8 C8           0.4340    10.3280     4.7150 ca         1 5F2      -0.099500
      9 C9           0.2010     8.9660     4.6940 ca         1 5F2      -0.102000
     10 C19         -4.4870     0.5990     7.5130 c3         1 5F2      -0.003100
     11 C20         -2.4980     6.6980     1.3990 c          1 5F2       0.573100
     12 C22         -3.1730     7.2390     0.1650 c3         1 5F2      -0.065100
     13 O3          -2.0010     2.5160     4.8280 o          1 5F2      -0.552000
     14 C16         -1.5180     1.7890     5.6730 c          1 5F2       0.689300
     15 O2          -2.3200     1.1570     6.5550 os         1 5F2      -0.414900
     16 C18         -3.7470     1.3930     6.4350 c3         1 5F2       0.223400
     17 C14          0.7150     2.0980     4.7780 c2         1 5F2      -0.084200
     18 C10          0.0970     2.6730     3.5300 c3         1 5F2      -0.008100
     19 C11          0.8620     2.1690     2.3030 c3         1 5F2      -0.025400
     20 C12          0.6470     0.6610     2.1540 c3         1 5F2      -0.139700
     21 C26          1.8790     0.0000     1.4890 c3         1 5F2      -0.032400
     22 C25          1.4680     0.0000     0.0000 c3         1 5F2       0.044000
     23 C13         -0.4880     0.3730     1.1950 c          1 5F2       0.621500
     24 O1          -1.6670     0.4690     1.4650 o          1 5F2      -0.644500
     25 N            0.1670     4.1360     3.5800 ns         1 5F2      -0.176900
     26 C17         -0.6680     4.8760     2.8240 c          1 5F2       0.547100
     27 O4          -1.5370     4.3350     2.1730 o          1 5F2      -0.583100
     28 N2          -1.1790     6.9020     1.5900 ns         1 5F2      -0.189900
     29 O21         -3.1400     6.0790     2.2200 o          1 5F2      -0.605100
     30 H1          -0.5730    -0.1210    -0.8120 hn         1 5F2       0.194500
     31 H2           0.5290     6.6360     2.7680 h1         1 5F2       0.028700
     32 H3          -2.2410     6.7960     4.0090 hc         1 5F2       0.051700
     33 H4          -0.7490     6.5270     4.9200 hc         1 5F2       0.051700
     34 H5          -2.6970     8.9390     2.9630 ha         1 5F2       0.108500
     35 H6          -2.2860    11.3700     3.0060 ha         1 5F2       0.101500
     36 H7          -0.2770    12.2600     4.1270 ha         1 5F2       0.102000
     37 H8           1.3150    10.7190     5.2100 ha         1 5F2       0.101500
     38 H9           0.9010     8.2890     5.1690 ha         1 5F2       0.108500
     39 H10         -5.5520     0.7740     7.4230 hc         1 5F2       0.009367
     40 H11         -4.1500     0.9170     8.4920 hc         1 5F2       0.009367
     41 H12         -4.2830    -0.4580     7.3860 hc         1 5F2       0.009367
     42 H13         -2.6040     8.0760    -0.2200 hc         1 5F2       0.019700
     43 H14         -3.2270     6.4620    -0.5870 hc         1 5F2       0.019700
     44 H15         -4.1740     7.5680     0.4170 hc         1 5F2       0.019700
     45 H16         -3.9500     2.4500     6.5620 h1         1 5F2       0.014700
     46 H17         -4.0840     1.0750     5.4560 h1         1 5F2       0.014700
     47 H18          0.3850     1.1840     6.6310 ha         1 5F2       0.115000
     48 H20          1.7880     1.9550     4.8280 ha         1 5F2       0.102000
     49 H22         -0.9390     2.3630     3.4630 h1         1 5F2       0.147700
     50 H23          1.9190     2.3720     2.4280 hc         1 5F2       0.024200
     51 H24          0.4990     2.6750     1.4170 hc         1 5F2       0.024200
     52 H25          0.4500     0.2040     3.1160 hc         1 5F2       0.055700
     53 H26          2.0170    -1.0120     1.8510 hc         1 5F2       0.027200
     54 H27          2.7680     0.6000     1.6430 hc         1 5F2       0.027200
     55 H28          1.8410     0.8910    -0.4910 h1         1 5F2       0.012200
     56 H29          1.8410    -0.8910    -0.4910 h1         1 5F2       0.012200
     57 H30          0.8660     4.5840     4.1390 hn         1 5F2       0.160500
     58 H31         -0.6380     7.3630     0.8850 hn         1 5F2       0.169500
     59 C15         -0.0630     1.5970     5.7350 ce         1 5F2      -0.180200
@<TRIPOS>BOND
     1     1    22 1   
     2     1    23 1   
     3     1    30 1   
     4     2     3 1   
     5     2    26 1   
     6     2    28 1   
     7     2    31 1   
     8     3     4 1   
     9     3    32 1   
    10     3    33 1   
    11     4     5 ar  
    12     4     9 ar  
    13     5     6 ar  
    14     5    34 1   
    15     6     7 ar  
    16     6    35 1   
    17     7     8 ar  
    18     7    36 1   
    19     8     9 ar  
    20     8    37 1   
    21     9    38 1   
    22    10    16 1   
    23    10    39 1   
    24    10    40 1   
    25    10    41 1   
    26    11    12 1   
    27    11    28 1   
    28    11    29 2   
    29    12    42 1   
    30    12    43 1   
    31    12    44 1   
    32    13    14 2   
    33    14    15 1   
    34    14    59 1   
    35    15    16 1   
    36    16    45 1   
    37    16    46 1   
    38    17    18 1   
    39    17    48 1   
    40    17    59 2   
    41    18    19 1   
    42    18    25 1   
    43    18    49 1   
    44    19    20 1   
    45    19    50 1   
    46    19    51 1   
    47    20    21 1   
    48    20    23 1   
    49    20    52 1   
    50    21    22 1   
    51    21    53 1   
    52    21    54 1   
    53    22    55 1   
    54    22    56 1   
    55    23    24 2   
    56    25    26 1   
    57    25    57 1   
    58    26    27 2   
    59    28    58 1   
    60    47    59 1   
@<TRIPOS>SUBSTRUCTURE
     1 5F2         1 TEMP              0 ****  ****    0 ROOT
