@<TRIPOS>MOLECULE
molecule
   59    60     1     0     0
SMALL
bcc


@<TRIPOS>ATOM
      1 N1           0.0000     0.0000     0.0000 ns         1 5F2      -0.589900
      2 C2          -0.5230     6.3760     2.7890 c3         1 5F2       0.059700
      3 C3          -1.1740     6.9810     4.0340 c3         1 5F2      -0.052100
      4 C4          -0.9220     8.4660     4.0610 ca         1 5F2      -0.083300
      5 C5          -1.8160     9.3300     3.4560 ca         1 5F2      -0.123500
      6 C6          -1.5850    10.6930     3.4800 ca         1 5F2      -0.128000
      7 C7          -0.4600    11.1920     4.1100 ca         1 5F2      -0.130000
      8 C8           0.4340    10.3280     4.7150 ca         1 5F2      -0.128000
      9 C9           0.2010     8.9660     4.6940 ca         1 5F2      -0.123500
     10 C19         -4.4870     0.5990     7.5130 c3         1 5F2      -0.096100
     11 C20         -2.4980     6.6980     1.3990 c          1 5F2       0.660100
     12 C22         -3.1730     7.2390     0.1650 c3         1 5F2      -0.166100
     13 O3          -2.0010     2.5160     4.8280 o          1 5F2      -0.549000
     14 C16         -1.5180     1.7890     5.6730 c          1 5F2       0.709300
     15 O2          -2.3200     1.1570     6.5550 os         1 5F2      -0.425900
     16 C18         -3.7470     1.3930     6.4350 c3         1 5F2       0.150400
     17 C14          0.7150     2.0980     4.7780 c2         1 5F2      -0.274200
     18 C10          0.0970     2.6730     3.5300 c3         1 5F2       0.224900
     19 C11          0.8620     2.1690     2.3030 c3         1 5F2      -0.088400
     20 C12          0.6470     0.6610     2.1540 c3         1 5F2      -0.156700
     21 C26          1.8790     0.0000     1.4890 c3         1 5F2      -0.090400
     22 C25          1.4680     0.0000     0.0000 c3         1 5F2       0.094000
     23 C13         -0.4880     0.3730     1.1950 c          1 5F2       0.699500
     24 O1          -1.6670     0.4690     1.4650 o          1 5F2      -0.617500
     25 N            0.1670     4.1360     3.5800 ns         1 5F2      -0.619900
     26 C17         -0.6680     4.8760     2.8240 c          1 5F2       0.641100
     27 O4          -1.5370     4.3350     2.1730 o          1 5F2      -0.540100
     28 N2          -1.1790     6.9020     1.5900 ns         1 5F2      -0.579900
     29 O21         -3.1400     6.0790     2.2200 o          1 5F2      -0.575100
     30 H1          -0.5730    -0.1210    -0.8120 hn         1 5F2       0.337500
     31 H2           0.5290     6.6360     2.7680 h1         1 5F2       0.061700
     32 H3          -0.7490     6.5270     4.9200 hc         1 5F2       0.079700
     33 H4          -2.2410     6.7960     4.0090 hc         1 5F2       0.079700
     34 H5          -2.6970     8.9390     2.9630 ha         1 5F2       0.131500
     35 H6          -2.2860    11.3700     3.0060 ha         1 5F2       0.129500
     36 H7          -0.2770    12.2600     4.1270 ha         1 5F2       0.129000
     37 H8           1.3150    10.7190     5.2100 ha         1 5F2       0.129500
     38 H9           0.9010     8.2890     5.1690 ha         1 5F2       0.131500
     39 H10         -4.1470     0.9140     8.4920 hc         1 5F2       0.049367
     40 H11         -4.2860    -0.4580     7.3840 hc         1 5F2       0.049367
     41 H12         -5.5520     0.7770     7.4250 hc         1 5F2       0.049367
     42 H13         -3.1980     6.4720    -0.5990 hc         1 5F2       0.059033
     43 H14         -4.1850     7.5390     0.4100 hc         1 5F2       0.059033
     44 H15         -2.6210     8.0960    -0.2020 hc         1 5F2       0.059033
     45 H16         -4.0840     1.0750     5.4560 h1         1 5F2       0.055700
     46 H17         -3.9500     2.4500     6.5620 h1         1 5F2       0.055700
     47 H18         -0.6780     0.9140     5.1620 ha         1 5F2       0.054000
     48 H20          0.3810     3.1280     4.7610 ha         1 5F2       0.151000
     49 H22         -0.9390     2.3630     3.4620 h1         1 5F2       0.176700
     50 H23          0.4990     2.6750     1.4170 hc         1 5F2       0.058200
     51 H24          1.9190     2.3720     2.4280 hc         1 5F2       0.058200
     52 H25          0.4500     0.2040     3.1160 hc         1 5F2       0.088700
     53 H26          2.0170    -1.0120     1.8510 hc         1 5F2       0.060700
     54 H27          2.7680     0.6000     1.6430 hc         1 5F2       0.060700
     55 H28          1.8410    -0.8910    -0.4910 h1         1 5F2       0.043700
     56 H29          1.8410     0.8910    -0.4910 h1         1 5F2       0.043700
     57 H30          0.8730     4.5840     4.1300 hn         1 5F2       0.317500
     58 H31         -0.6390     7.3680     0.8880 hn         1 5F2       0.316500
     59 C15         -0.0630     1.5970     5.7350 ce         1 5F2      -0.173200
@<TRIPOS>BOND
     1    13    14 2
     2    14    15 1
     3    14    59 1
     4    16    15 1
     5    16    10 1
     6    59    17 2
     7    17    18 1
     8    19    18 1
     9    19    20 1
    10    18    25 1
    11    24    23 2
    12    23    20 1
    13    23     1 1
    14    20    21 1
    15    25    26 1
    16     1    22 1
    17    27    26 2
    18    22    21 1
    19    26     2 1
    20     3     2 1
    21     3     4 1
    22     2    28 1
    23     4     5 ar
    24     4     9 ar
    25     5     6 ar
    26    29    11 2
    27    28    11 1
    28     9     8 ar
    29    11    12 1
    30     6     7 ar
    31     8     7 ar
    32     1    30 1
    33     2    31 1
    34     3    32 1
    35     3    33 1
    36     5    34 1
    37     6    35 1
    38     7    36 1
    39     8    37 1
    40     9    38 1
    41    10    39 1
    42    10    40 1
    43    10    41 1
    44    12    42 1
    45    12    43 1
    46    12    44 1
    47    16    45 1
    48    16    46 1
    49    59    47 1
    50    17    48 1
    51    18    49 1
    52    19    50 1
    53    19    51 1
    54    20    52 1
    55    21    53 1
    56    21    54 1
    57    22    55 1
    58    22    56 1
    59    25    57 1
    60    28    58 1
@<TRIPOS>SUBSTRUCTURE
     1 5F2         1 TEMP              0 ****  ****    0 ROOT
