@<TRIPOS>MOLECULE
molecule
   32    34     1     0     0
SMALL
bcc


@<TRIPOS>ATOM
      1 C11          0.0000     0.0000     0.0000 c          1 5F3       0.881200
      2 C12          4.8810    -0.0000     0.9790 cp         1 5F3       0.031500
      3 C7           3.7650     0.0000     0.0000 cp         1 5F3      -0.094500
      4 C8           2.4480     0.0000     0.4470 ca         1 5F3      -0.062000
      5 C9           1.3990     0.0010    -0.4730 ca         1 5F3      -0.108600
      6 C10          1.6740     0.0020    -1.8410 ca         1 5F3      -0.062000
      7 C2           2.5670     0.0090    -6.0230 ca         1 5F3       0.410450
      8 N1           6.9370    -0.0030     2.7840 nb         1 5F3      -0.717000
      9 C6           4.0380     0.0060    -1.3660 ca         1 5F3      -0.109000
     10 C5           2.9930     0.0020    -2.2850 cp         1 5F3      -0.094500
     11 C4           3.2850     0.0080    -3.7410 cp         1 5F3       0.031500
     12 O           -0.2390    -0.0010     1.1920 o          1 5F3      -0.830300
     13 O1          -1.0120     0.0070    -0.8890 o          1 5F3      -0.830300
     14 C3           2.2510     0.0030    -4.6800 ca         1 5F3      -0.255300
     15 N            3.8240     0.0140    -6.4230 nb         1 5F3      -0.717000
     16 C1           4.8290     0.0120    -5.5690 ca         1 5F3       0.410450
     17 C            4.6020     0.0060    -4.2080 ca         1 5F3      -0.255300
     18 C16          4.6290    -0.0010     2.3540 ca         1 5F3      -0.255300
     19 C15          5.6960    -0.0020     3.2290 ca         1 5F3       0.410450
     20 C14          7.2180    -0.0120     1.4950 ca         1 5F3       0.410450
     21 C13          6.2110    -0.0060     0.5520 ca         1 5F3      -0.255300
     22 H5           2.2360    -0.0340     1.5090 ha         1 5F3       0.157500
     23 H6           0.8620    -0.0010    -2.5570 ha         1 5F3       0.157500
     24 H2           1.7710     0.0080    -6.7580 h4         1 5F3       0.011600
     25 H4           5.0640     0.0060    -1.7130 ha         1 5F3       0.116000
     26 H3           1.2160    -0.0010    -4.3590 ha         1 5F3       0.146000
     27 H1           5.8460     0.0140    -5.9410 h4         1 5F3       0.011600
     28 H            5.4330     0.0050    -3.5120 ha         1 5F3       0.146000
     29 H11          3.6120    -0.0000     2.7260 ha         1 5F3       0.146000
     30 H10          5.5110     0.0010     4.2970 h4         1 5F3       0.011600
     31 H9           8.2530    -0.0150     1.1730 h4         1 5F3       0.011600
     32 H8           6.4490    -0.0140    -0.5050 ha         1 5F3       0.146000
@<TRIPOS>BOND
     1    20     8 ar  
     2    20    21 ar  
     3     8    19 ar  
     4    21     2 ar  
     5    19    18 ar  
     6     2    18 ar  
     7     2     3 1   
     8    16    17 ar  
     9    16    15 ar  
    10    17    11 ar  
    11     9     3 ar  
    12     9    10 ar  
    13     3     4 ar  
    14    15     7 ar  
    15    11    10 1   
    16    11    14 ar  
    17    10     6 ar  
    18     7    14 ar  
    19     4     5 ar  
    20     6     5 ar  
    21     5     1 1   
    22     1    12 1   
    23     1    13 1   
    24     4    22 1   
    25     6    23 1   
    26     7    24 1   
    27     9    25 1   
    28    14    26 1   
    29    16    27 1   
    30    17    28 1   
    31    18    29 1   
    32    19    30 1   
    33    20    31 1   
    34    21    32 1   
@<TRIPOS>SUBSTRUCTURE
     1 5F3         1 TEMP              0 ****  ****    0 ROOT
