@<TRIPOS>MOLECULE
molecule
   29    30     1     0     0
SMALL
bcc


@<TRIPOS>ATOM
      1 C1           0.0000     0.0000     0.0000 cc         1 5F4      -0.262600
      2 C2          -0.8770    -0.0000    -1.1850 c          1 5F4       0.622300
      3 C3           1.4130     0.0000     0.0000 cc         1 5F4      -0.048000
      4 C11          3.2020     0.0010     1.7770 c          1 5F4       0.701700
      5 C12         -4.4990     0.9030    -0.7650 ca         1 5F4      -0.126000
      6 C14         -4.3070    -1.4890    -0.8280 ca         1 5F4      -0.126000
      7 C18         -5.0850    -0.3500    -0.7200 ca         1 5F4      -0.103000
      8 C19          4.8500     0.0010     3.5710 c3         1 5F4       0.105300
      9 C4          -0.4060     0.0060     1.3230 cd         1 5F4      -0.085300
     10 C5          -2.3400    -0.1220    -1.0210 ca         1 5F4      -0.140600
     11 O6          -0.3950     0.0990    -2.2970 o          1 5F4      -0.496100
     12 C7           1.8120     0.0000     1.3030 cd         1 5F4      -0.212900
     13 N8           0.6880     0.0090     2.1000 na         1 5F4      -0.138100
     14 C9          -3.1320     1.0250    -0.9170 ca         1 5F4       0.056400
     15 C10         -2.9400    -1.3840    -0.9800 ca         1 5F4       0.056400
     16 Cl1         -2.4000     2.5980    -0.9790 cl         1 5F4      -0.079900
     17 Cl2         -1.9670    -2.8150    -1.1210 cl         1 5F4      -0.079900
     18 N16          3.4640     0.0010     3.0990 ns         1 5F4      -0.593900
     19 O17          4.1180     0.0010     0.9760 o          1 5F4      -0.587100
     20 H1           2.0500     0.1660    -0.8610 ha         1 5F4       0.187000
     21 H2          -5.1150     1.7910    -0.6820 ha         1 5F4       0.151000
     22 H3          -4.7740    -2.4670    -0.7940 ha         1 5F4       0.151000
     23 H4          -6.1580    -0.4390    -0.6010 ha         1 5F4       0.145000
     24 H5           4.8630     0.0010     4.6550 h1         1 5F4       0.044033
     25 H6           5.3570     0.8850     3.2050 h1         1 5F4       0.044033
     26 H7           5.3570    -0.8840     3.2040 h1         1 5F4       0.044033
     27 H8          -1.4320     0.0110     1.6720 h4         1 5F4       0.176000
     28 H9           0.6880     0.0120     3.1010 hn         1 5F4       0.294700
     29 H10          2.7110     0.0000     3.7580 hn         1 5F4       0.300500
@<TRIPOS>BOND
     1     7     5 ar  
     2     7     6 ar  
     3     5    14 ar  
     4     6    15 ar  
     5    14    16 1   
     6    14    10 ar  
     7    15    10 ar  
     8    15    17 1   
     9    10     2 1   
    10     9    13 1   
    11     9     1 2   
    12    13    12 1   
    13     2     1 1   
    14     2    11 2   
    15     1     3 1   
    16    12     3 2   
    17    12     4 1   
    18    19     4 2   
    19     4    18 1   
    20    18     8 1   
    21     3    20 1   
    22     5    21 1   
    23     6    22 1   
    24     7    23 1   
    25     8    24 1   
    26     8    25 1   
    27     8    26 1   
    28     9    27 1   
    29    13    28 1   
    30    18    29 1   
@<TRIPOS>SUBSTRUCTURE
     1 5F4         1 TEMP              0 ****  ****    0 ROOT
