@<TRIPOS>MOLECULE
5F4
   29    30     1     0     0
SMALL
bcc


@<TRIPOS>ATOM
      1 C1           0.0000     0.0000     0.0000 cc         1 5F4      -0.274600
      2 C2          -0.8770    -0.0000    -1.1850 c          1 5F4       0.679300
      3 C3           1.4130     0.0000     0.0000 cc         1 5F4       0.005000
      4 C11          3.2020     0.0010     1.7770 c          1 5F4       0.634700
      5 C12         -4.4990     0.9030    -0.7650 ca         1 5F4      -0.106000
      6 C14         -4.3070    -1.4890    -0.8280 ca         1 5F4      -0.106000
      7 C18         -5.0850    -0.3500    -0.7200 ca         1 5F4      -0.072000
      8 C19          4.8500     0.0010     3.5710 c3         1 5F4       0.092300
      9 C4          -0.4060     0.0060     1.3230 cd         1 5F4      -0.277300
     10 C5          -2.3400    -0.1220    -1.0210 ca         1 5F4      -0.147600
     11 O6          -0.3950     0.0990    -2.2970 o          1 5F4      -0.535100
     12 C7           1.8120     0.0000     1.3030 cd         1 5F4      -0.429900
     13 N8           0.6880     0.0090     2.1000 na         1 5F4       0.444900
     14 C9          -3.1320     1.0250    -0.9170 ca         1 5F4      -0.006100
     15 C10         -2.9400    -1.3840    -0.9800 ca         1 5F4      -0.006100
     16 Cl1         -2.4000     2.5980    -0.9790 cl         1 5F4       0.000100
     17 Cl2         -1.9670    -2.8150    -1.1210 cl         1 5F4       0.000100
     18 N16          3.4640     0.0010     3.0990 ns         1 5F4      -0.209900
     19 O17          4.1180     0.0010     0.9760 o          1 5F4      -0.627100
     20 H1           2.0500     0.1660    -0.8610 ha         1 5F4       0.154000
     21 H2          -5.1150     1.7910    -0.6820 ha         1 5F4       0.118000
     22 H3          -4.7740    -2.4670    -0.7940 ha         1 5F4       0.118000
     23 H4          -6.1580    -0.4390    -0.6010 ha         1 5F4       0.109000
     24 H5           4.8630     0.0010     4.6550 h1         1 5F4       0.010700
     25 H6           5.3570     0.8850     3.2050 h1         1 5F4       0.010700
     26 H7           5.3570    -0.8840     3.2040 h1         1 5F4       0.010700
     27 H8          -1.4320     0.0110     1.6720 h4         1 5F4       0.151000
     28 H9           0.6880     0.0120     3.1010 hn         1 5F4       0.104700
     29 H10          2.7110     0.0000     3.7580 hn         1 5F4       0.155500
@<TRIPOS>BOND
     1     1     2 1   
     2     1     3 1   
     3     1     9 2   
     4     2    10 1   
     5     2    11 2   
     6     3    12 2   
     7     3    20 1   
     8     4    12 1   
     9     4    18 1   
    10     4    19 2   
    11     5     7 ar  
    12     5    14 ar  
    13     5    21 1   
    14     6     7 ar  
    15     6    15 ar  
    16     6    22 1   
    17     7    23 1   
    18     8    18 1   
    19     8    24 1   
    20     8    25 1   
    21     8    26 1   
    22     9    13 1   
    23     9    27 1   
    24    10    14 ar  
    25    10    15 ar  
    26    12    13 1   
    27    13    28 1   
    28    14    16 1   
    29    15    17 1   
    30    18    29 1   
@<TRIPOS>SUBSTRUCTURE
     1 5F4         1 TEMP              0 ****  ****    0 ROOT
