@<TRIPOS>MOLECULE
molecule
   20    21     1     0     0
SMALL
bcc


@<TRIPOS>ATOM
      1 C1           0.0000     0.0000     0.0000 ca         1 5F5      -0.183500
      2 C2           1.3960     0.0000     0.0000 ca         1 5F5      -0.132000
      3 C3           2.0900     0.0000     1.1950 ca         1 5F5      -0.169000
      4 C4           1.4090    -0.0000     2.3950 ca         1 5F5      -0.073000
      5 C5           0.0110     0.0010     2.4100 ca         1 5F5      -0.113600
      6 C6          -0.6940     0.0060     1.2080 ca         1 5F5      -0.050000
      7 C7          -0.7160     0.0010     3.6950 c          1 5F5       0.882200
      8 C8          -1.6170     0.0000    -3.6100 cc         1 5F5      -0.216400
      9 O           -1.9310     0.0020     3.7060 o          1 5F5      -0.832300
     10 O1          -0.0330     0.0000     4.8560 o          1 5F5      -0.832300
     11 C           -0.7410     0.0000    -1.2800 cd         1 5F5       0.597900
     12 S           -0.0110     0.0000    -2.8840 ss         1 5F5      -0.306300
     13 C9          -2.5210     0.0060    -2.6240 cc         1 5F5       0.378200
     14 N           -2.0370     0.0100    -1.4030 nc         1 5F5      -0.691000
     15 H            1.9370    -0.0020    -0.9390 ha         1 5F5       0.108000
     16 H1           3.1730    -0.0000     1.1890 ha         1 5F5       0.110000
     17 H2           1.9590    -0.0020     3.3290 ha         1 5F5       0.157000
     18 H3          -1.7770     0.0060     1.2130 ha         1 5F5       0.171000
     19 H6          -3.5860     0.0100    -2.8210 h4         1 5F5       0.029100
     20 H5          -1.8350    -0.0020    -4.6710 h4         1 5F5       0.164000
@<TRIPOS>BOND
     1     9     7 1
     2     7    10 1
     3     7     5 1
     4     4     5 ar
     5     4     3 ar
     6     5     6 ar
     7     3     2 ar
     8    14    13 1
     9    14    11 2
    10     6     1 ar
    11     2     1 ar
    12     1    11 1
    13    13     8 2
    14    11    12 1
    15     8    12 1
    16     2    15 1
    17     3    16 1
    18     4    17 1
    19     6    18 1
    20     8    20 1
    21    13    19 1
@<TRIPOS>SUBSTRUCTURE
     1 5F5         1 TEMP              0 ****  ****    0 ROOT
