@<TRIPOS>MOLECULE
molecule
   29    31     1     0     0
SMALL
bcc


@<TRIPOS>ATOM
      1 C1           0.0000     0.0000     0.0000 ca         1 5F6       0.058900
      2 C2           1.3800     0.0000     0.0000 ca         1 5F6      -0.124000
      3 C3           2.0750     0.0000     1.1970 ca         1 5F6      -0.100000
      4 C11         -2.9100    -1.2710     1.3340 ca         1 5F6      -0.171600
      5 C12         -2.2090    -2.4910     1.3220 ca         1 5F6      -0.086000
      6 C13         -2.8650    -3.6740     1.4230 ca         1 5F6      -0.174300
      7 C14         -4.2680    -3.6960     1.5430 ca         1 5F6       0.439600
      8 C15         -4.9850    -2.4740     1.5570 ca         1 5F6      -0.176300
      9 C16         -4.2920    -1.2590     1.4570 ca         1 5F6      -0.034000
     10 C18         -6.2340    -4.8880     1.7540 ca         1 5F6       0.445200
     11 C19         -6.9990    -3.7240     1.7740 ca         1 5F6      -0.263300
     12 C20         -6.3880    -2.5060     1.6820 ca         1 5F6      -0.065000
     13 C4           1.3950     0.0010     2.4010 ca         1 5F6      -0.124000
     14 C5           0.0140     0.0020     2.4180 ca         1 5F6       0.058900
     15 C6          -0.6960     0.0010     1.2130 ca         1 5F6      -0.142600
     16 Cl7         -0.8700     0.0060    -1.5020 cl         1 5F6      -0.080900
     17 Cl8         -0.8380     0.0010     3.9310 cl         1 5F6      -0.080900
     18 C9          -2.1720     0.0020     1.2230 c          1 5F6       0.596300
     19 O10         -2.7800     1.0520     1.1370 o          1 5F6      -0.498100
     20 N17         -4.9280    -4.8540     1.6430 nb         1 5F6      -0.686000
     21 H1           1.9200    -0.0010    -0.9390 ha         1 5F6       0.152000
     22 H2           3.1580    -0.0000     1.1910 ha         1 5F6       0.146000
     23 H3          -1.1290    -2.4850     1.2260 ha         1 5F6       0.141000
     24 H4          -2.3090    -4.6030     1.4130 ha         1 5F6       0.153000
     25 H5          -4.8310    -0.3200     1.4650 ha         1 5F6       0.156000
     26 H6          -6.7320    -5.8480     1.8280 h4         1 5F6       0.025100
     27 H7          -8.0760    -3.7840     1.8670 ha         1 5F6       0.140000
     28 H8          -6.9670    -1.5910     1.6960 ha         1 5F6       0.144000
     29 H9           1.9460     0.0010     3.3330 ha         1 5F6       0.152000
@<TRIPOS>BOND
     1    11    12 ar
     2    11    10 ar
     3    12     8 ar
     4    10    20 ar
     5     8     9 ar
     6     8     7 ar
     7     9     4 ar
     8    20     7 ar
     9     7     6 ar
    10    19    18 2
    11     4    18 1
    12     4     5 ar
    13    18    15 1
    14     6     5 ar
    15    16     1 1
    16    15     1 ar
    17    15    14 ar
    18    17    14 1
    19     1     2 ar
    20    14    13 ar
    21     2     3 ar
    22    13     3 ar
    23     2    21 1
    24     3    22 1
    25     5    23 1
    26     6    24 1
    27     9    25 1
    28    10    26 1
    29    11    27 1
    30    12    28 1
    31    13    29 1
@<TRIPOS>SUBSTRUCTURE
     1 5F6         1 TEMP              0 ****  ****    0 ROOT
