@<TRIPOS>MOLECULE
5F7
   36    38     1     0     0
SMALL
bcc


@<TRIPOS>ATOM
      1 C1           0.0000     0.0000     0.0000 ca         1 5F7       0.433200
      2 C2           1.3910     0.0000     0.0000 ca         1 5F7      -0.343300
      3 C3           2.0760     0.0000     1.2000 ca         1 5F7       0.180100
      4 C12          1.0070    -0.0020     7.2070 ca         1 5F7       0.018600
      5 C13          0.6180     1.2010     7.7870 ca         1 5F7      -0.031100
      6 C14         -0.1520     1.1970     8.9350 ca         1 5F7      -0.099000
      7 C15         -0.5360    -0.0020     9.5060 ca         1 5F7      -0.073000
      8 C16         -0.1520    -1.2010     8.9340 ca         1 5F7      -0.099000
      9 C17          0.6130    -1.2040     7.7820 ca         1 5F7      -0.031100
     10 C21          4.1090    -0.0020    -0.0270 c3         1 5F7       0.243700
     11 C22          3.2470    -0.0020     6.1450 c3         1 5F7       0.202100
     12 C4           1.3200     0.0000     2.3950 ca         1 5F7      -0.121300
     13 C5          -0.0930     0.0000     2.3120 ca         1 5F7       0.363600
     14 N6          -0.6910     0.0060     1.1150 nb         1 5F7      -0.596000
     15 C7           1.9430    -0.0010     3.6500 ca         1 5F7      -0.170000
     16 C8           1.1700    -0.0010     4.7920 ca         1 5F7       0.058600
     17 C9          -0.2270    -0.0010     4.7030 ca         1 5F7      -0.140000
     18 C10         -0.8510     0.0010     3.4960 ca         1 5F7      -0.109300
     19 N11          1.7860    -0.0010     6.0470 nh         1 5F7      -0.235400
     20 Cl1          1.0950    -2.7100     7.0640 cl         1 5F7       0.002600
     21 Cl2          1.1010     2.7060     7.0690 cl         1 5F7       0.002600
     22 O20          3.4320    -0.0010     1.2310 os         1 5F7      -0.299900
     23 H1          -0.5270    -0.0000    -0.9460 h4         1 5F7      -0.025900
     24 H2           1.9350    -0.0050    -0.9370 ha         1 5F7       0.126000
     25 H3          -0.4550     2.1340     9.3860 ha         1 5F7       0.119000
     26 H4          -1.1380    -0.0020    10.4070 ha         1 5F7       0.110000
     27 H5          -0.4570    -2.1380     9.3840 ha         1 5F7       0.119000
     28 H6           5.1800    -0.0010     0.1390 h1         1 5F7      -0.000633
     29 H7           3.8310    -0.8870    -0.5870 h1         1 5F7      -0.000633
     30 H8           3.8310     0.8820    -0.5880 h1         1 5F7      -0.000633
     31 H9           3.6420     0.8820     5.6600 h1         1 5F7       0.011700
     32 H10          3.5380    -0.0030     7.1880 h1         1 5F7       0.011700
     33 H11          3.6410    -0.8870     5.6590 h1         1 5F7       0.011700
     34 H12          3.0240    -0.0010     3.7220 ha         1 5F7       0.131000
     35 H13         -0.8190    -0.0020     5.6100 ha         1 5F7       0.116000
     36 H14         -1.9330     0.0010     3.4460 ha         1 5F7       0.116000
@<TRIPOS>BOND
     1     1     2 ar  
     2     1    14 ar  
     3     1    23 1   
     4     2     3 ar  
     5     2    24 1   
     6     3    12 ar  
     7     3    22 1   
     8     4     5 ar  
     9     4     9 ar  
    10     4    19 1   
    11     5     6 ar  
    12     5    21 1   
    13     6     7 ar  
    14     6    25 1   
    15     7     8 ar  
    16     7    26 1   
    17     8     9 ar  
    18     8    27 1   
    19     9    20 1   
    20    10    22 1   
    21    10    28 1   
    22    10    29 1   
    23    10    30 1   
    24    11    19 1   
    25    11    31 1   
    26    11    32 1   
    27    11    33 1   
    28    12    13 ar  
    29    12    15 ar  
    30    13    14 ar  
    31    13    18 ar  
    32    15    16 ar  
    33    15    34 1   
    34    16    17 ar  
    35    16    19 1   
    36    17    18 ar  
    37    17    35 1   
    38    18    36 1   
@<TRIPOS>SUBSTRUCTURE
     1 5F7         1 TEMP              0 ****  ****    0 ROOT
