@<TRIPOS>MOLECULE
molecule
   36    38     1     0     0
SMALL
bcc


@<TRIPOS>ATOM
      1 C1           0.0000     0.0000     0.0000 ca         1 5F7       0.448200
      2 C2           1.3910     0.0000     0.0000 ca         1 5F7      -0.357300
      3 C3           2.0760     0.0000     1.2000 ca         1 5F7       0.173100
      4 C12          1.0070    -0.0020     7.2070 ca         1 5F7       0.154600
      5 C13          0.6180     1.2010     7.7870 ca         1 5F7       0.030400
      6 C14         -0.1520     1.1970     8.9350 ca         1 5F7      -0.122000
      7 C15         -0.5360    -0.0020     9.5060 ca         1 5F7      -0.111000
      8 C16         -0.1520    -1.2010     8.9340 ca         1 5F7      -0.122000
      9 C17          0.6130    -1.2040     7.7820 ca         1 5F7       0.030400
     10 C21          4.1090    -0.0020    -0.0270 c3         1 5F7       0.127700
     11 C22          3.2470    -0.0020     6.1450 c3         1 5F7       0.238100
     12 C4           1.3200     0.0000     2.3950 ca         1 5F7      -0.127300
     13 C5          -0.0930     0.0000     2.3120 ca         1 5F7       0.408600
     14 N6          -0.6910     0.0060     1.1150 nb         1 5F7      -0.702000
     15 C7           1.9430    -0.0010     3.6500 ca         1 5F7      -0.180000
     16 C8           1.1700    -0.0010     4.7920 ca         1 5F7       0.195600
     17 C9          -0.2270    -0.0010     4.7030 ca         1 5F7      -0.152000
     18 C10         -0.8510     0.0010     3.4960 ca         1 5F7      -0.138300
     19 N11          1.7860    -0.0010     6.0470 nh         1 5F7      -0.613400
     20 Cl1          1.0950    -2.7100     7.0640 cl         1 5F7      -0.080900
     21 Cl2          1.1010     2.7060     7.0690 cl         1 5F7      -0.080900
     22 O20          3.4320    -0.0010     1.2310 os         1 5F7      -0.320900
     23 H1          -0.5270    -0.0000    -0.9460 h4         1 5F7       0.019100
     24 H2           1.9350    -0.0050    -0.9370 ha         1 5F7       0.138000
     25 H3          -0.4550     2.1340     9.3860 ha         1 5F7       0.151000
     26 H4          -1.1380    -0.0020    10.4070 ha         1 5F7       0.145000
     27 H5          -0.4570    -2.1380     9.3840 ha         1 5F7       0.151000
     28 H6           5.1800    -0.0010     0.1390 h1         1 5F7       0.044033
     29 H7           3.8310    -0.8870    -0.5870 h1         1 5F7       0.044033
     30 H8           3.8310     0.8820    -0.5880 h1         1 5F7       0.044033
     31 H9           3.6420     0.8820     5.6600 h1         1 5F7       0.042367
     32 H10          3.5380    -0.0030     7.1880 h1         1 5F7       0.042367
     33 H11          3.6410    -0.8870     5.6590 h1         1 5F7       0.042367
     34 H12          3.0240    -0.0010     3.7220 ha         1 5F7       0.149000
     35 H13         -0.8190    -0.0020     5.6100 ha         1 5F7       0.139000
     36 H14         -1.9330     0.0010     3.4460 ha         1 5F7       0.151000
@<TRIPOS>BOND
     1    20     9 1   
     2     8     9 ar  
     3     8     7 ar  
     4     9     4 ar  
     5     7     6 ar  
     6     4    19 1   
     7     4     5 ar  
     8    19    11 1   
     9    19    16 1   
    10    17    16 ar  
    11    17    18 ar  
    12     6     5 ar  
    13    16    15 ar  
    14    18    13 ar  
    15     5    21 1   
    16    15    12 ar  
    17    13    12 ar  
    18    13    14 ar  
    19    12     3 ar  
    20    14     1 ar  
    21     3    22 1   
    22     3     2 ar  
    23     1     2 ar  
    24    22    10 1   
    25     1    23 1   
    26     2    24 1   
    27     6    25 1   
    28     7    26 1   
    29     8    27 1   
    30    10    28 1   
    31    10    29 1   
    32    10    30 1   
    33    11    31 1   
    34    11    32 1   
    35    11    33 1   
    36    15    34 1   
    37    17    35 1   
    38    18    36 1   
@<TRIPOS>SUBSTRUCTURE
     1 5F7         1 TEMP              0 ****  ****    0 ROOT
