@<TRIPOS>MOLECULE
molecule
   23    24     1     0     0
SMALL
bcc


@<TRIPOS>ATOM
      1 O1           0.0000     0.0000     0.0000 o          1 5F8      -0.834300
      2 C            1.3470     0.0000     0.0000 c          1 5F8       0.882200
      3 O            1.9540     0.0000     1.0520 o          1 5F8      -0.834300
      4 C1           2.0860    -0.0000    -1.2790 ca         1 5F8      -0.103600
      5 C6           1.3900     0.0000    -2.4900 ca         1 5F8      -0.082000
      6 C5           2.0810    -0.0000    -3.6850 ca         1 5F8      -0.165000
      7 C4           3.4620    -0.0000    -3.6920 ca         1 5F8      -0.137000
      8 C3           4.1680    -0.0010    -2.4900 cp         1 5F8      -0.087000
      9 C2           3.4810     0.0060    -1.2810 ca         1 5F8      -0.086000
     10 C7           5.6530     0.0060    -2.5000 cp         1 5F8      -0.119300
     11 C11          6.3690     0.0110    -1.3050 ca         1 5F8       0.417200
     12 N            7.6860     0.0160    -1.3130 nb         1 5F8      -0.695000
     13 C10          8.3750     0.0160    -2.4380 ca         1 5F8       0.388200
     14 C9           7.7380     0.0110    -3.6650 ca         1 5F8      -0.260300
     15 C8           6.3540    -0.0010    -3.7080 ca         1 5F8      -0.107000
     16 H3           0.3070     0.0000    -2.4910 ha         1 5F8       0.156000
     17 H2           1.5360    -0.0010    -4.6220 ha         1 5F8       0.108000
     18 H1           3.9970     0.0000    -4.6340 ha         1 5F8       0.104000
     19 H            4.0230     0.1210    -0.3500 ha         1 5F8       0.149000
     20 H7           5.8380     0.0120    -0.3610 h4         1 5F8       0.043100
     21 H6           9.4580     0.0220    -2.4000 h4         1 5F8       0.006100
     22 H5           8.3150     0.0080    -4.5820 ha         1 5F8       0.122000
     23 H4           5.8280    -0.0050    -4.6550 ha         1 5F8       0.137000
@<TRIPOS>BOND
     1    12    11 ar
     2    12    13 ar
     3    11    10 ar
     4     3     2 1
     5    13    14 ar
     6    10     8 1
     7    10    15 ar
     8     8     9 ar
     9     8     7 ar
    10     9     4 ar
    11     7     6 ar
    12     4     2 1
    13     4     5 ar
    14     6     5 ar
    15     2     1 1
    16    14    15 ar
    17     5    16 1
    18     6    17 1
    19     7    18 1
    20     9    19 1
    21    11    20 1
    22    13    21 1
    23    14    22 1
    24    15    23 1
@<TRIPOS>SUBSTRUCTURE
     1 5F8         1 TEMP              0 ****  ****    0 ROOT
