@<TRIPOS>MOLECULE
5FB
   42    44     1     0     0
SMALL
bcc


@<TRIPOS>ATOM
      1 C15          0.0000     0.0000     0.0000 ca         1 5FB      -0.067000
      2 C20         -2.5840     3.5720     1.6620 ca         1 5FB       0.002000
      3 C21         -3.9750     3.6120     1.7830 ca         1 5FB      -0.027000
      4 C22         -4.6420     4.8640     1.9800 cg         1 5FB       0.234800
      5 C24         -4.7140     2.4280     1.7120 ca         1 5FB       0.022000
      6 C26         -4.8640    -0.0510     1.4450 c3         1 5FB       0.681200
      7 C01          0.1150    -0.0120     4.7800 c3         1 5FB       0.231700
      8 O02         -0.6680    -0.0070     3.5840 os         1 5FB      -0.287900
      9 C03          0.0070    -0.0060     2.4040 ca         1 5FB       0.144100
     10 C04          1.3920    -0.0110     2.3960 ca         1 5FB      -0.212000
     11 C05          2.0760     0.0000     1.1960 ca         1 5FB      -0.050300
     12 C06          3.5840    -0.0060     1.1890 c3         1 5FB      -0.044100
     13 C07          4.0880    -1.4500     1.1710 c3         1 5FB       0.042400
     14 S08          3.6500    -2.2670    -0.4020 ss         1 5FB      -0.348700
     15 C09          5.3350    -2.5540    -0.8740 c          1 5FB       0.683100
     16 O10          5.7100    -3.0990    -1.8930 o          1 5FB      -0.553500
     17 N11          6.1160    -2.0650     0.0920 ns         1 5FB      -0.165500
     18 C12          5.6010    -1.4880     1.1640 c          1 5FB       0.594500
     19 O13          6.2780    -1.0330     2.0610 o          1 5FB      -0.605500
     20 C14          1.3820     0.0000     0.0000 ca         1 5FB      -0.112000
     21 C16         -0.6930    -0.0000     1.2010 ca         1 5FB       0.051100
     22 O17         -2.0530     0.0060     1.2040 os         1 5FB      -0.170200
     23 C18         -2.6840     1.1910     1.3960 ca         1 5FB       0.237100
     24 C19         -1.9460     2.3660     1.4650 ca         1 5FB      -0.212000
     25 N23         -5.1850     5.8520     2.1230 n1         1 5FB      -0.380800
     26 C25         -4.0690     1.2260     1.5220 ca         1 5FB      -0.328300
     27 F27         -5.1760    -0.0850     0.3020 f          1 5FB      -0.184300
     28 F28         -3.7870    -1.1560     1.6610 f          1 5FB      -0.184300
     29 F29         -5.5920    -0.0410     2.4910 f          1 5FB      -0.184300
     30 H15         -0.5420    -0.0000    -0.9380 ha         1 5FB       0.122000
     31 H20         -2.0100     4.4900     1.7020 ha         1 5FB       0.112000
     32 H24         -5.7930     2.4560     1.8050 ha         1 5FB       0.117000
     33 H01          0.3250     1.0070     5.0790 h1         1 5FB       0.002700
     34 H01A        -0.4330    -0.5140     5.5680 h1         1 5FB       0.002700
     35 H01B         1.0470    -0.5340     4.5990 h1         1 5FB       0.002700
     36 H04          1.9390    -0.0230     3.3320 ha         1 5FB       0.133000
     37 H06          3.9470    -0.4360     2.1150 hc         1 5FB       0.074200
     38 H06A         3.9490     1.0100     1.0960 hc         1 5FB       0.074200
     39 H07          3.6970    -2.0100     2.0120 h1         1 5FB       0.088700
     40 HN11         7.0270    -2.3950     0.3430 hn         1 5FB       0.199500
     41 H14          1.9240     0.0000    -0.9380 ha         1 5FB       0.131000
     42 H19         -0.8680     2.3340     1.3710 ha         1 5FB       0.134000
@<TRIPOS>BOND
     1     1    20 ar  
     2     1    21 ar  
     3     1    30 1   
     4     2     3 ar  
     5     2    24 ar  
     6     2    31 1   
     7     3     4 1   
     8     3     5 ar  
     9     4    25 3   
    10     5    26 ar  
    11     5    32 1   
    12     6    26 1   
    13     6    27 1   
    14     6    28 1   
    15     6    29 1   
    16     7     8 1   
    17     7    33 1   
    18     7    34 1   
    19     7    35 1   
    20     8     9 1   
    21     9    10 ar  
    22     9    21 ar  
    23    10    11 ar  
    24    10    36 1   
    25    11    12 1   
    26    11    20 ar  
    27    12    13 1   
    28    12    37 1   
    29    12    38 1   
    30    13    14 1   
    31    13    18 1   
    32    13    39 1   
    33    14    15 1   
    34    15    16 2   
    35    15    17 1   
    36    17    18 1   
    37    17    40 1   
    38    18    19 2   
    39    20    41 1   
    40    21    22 1   
    41    22    23 1   
    42    23    24 ar  
    43    23    26 ar  
    44    24    42 1   
@<TRIPOS>SUBSTRUCTURE
     1 5FB         1 TEMP              0 ****  ****    0 ROOT
