@<TRIPOS>MOLECULE
5FD
   33    35     1     0     0
SMALL
bcc


@<TRIPOS>ATOM
      1 O2'        -0.0110    1.4150    0.6570 oh        1 5FD     -0.562800
      2 C2'         0.9650    0.5890    0.0780 c3        1 5FD      0.147100
      3 C3'         1.7440   -0.2600    1.1120 c3        1 5FD      0.080100
      4 O3'         1.0920   -0.1080    2.3580 oh        1 5FD     -0.585800
      5 C4'         3.1680    0.3330    1.1550 c3        1 5FD      0.065100
      6 C5'         4.2300   -0.6810    0.6980 c3        1 5FD      0.141900
      7 F19         5.4840   -0.3430    1.1640 f         1 5FD     -0.237300
      8 O4'         3.1860    1.4840    0.3060 os        1 5FD     -0.408600
      9 C1'         2.0720    1.4550   -0.6070 c3        1 5FD      0.365300
     10 N9          2.5080    0.9070   -1.8840 nh        1 5FD     -0.765600
     11 C8          3.7350    1.3900   -2.4310 c2        1 5FD      0.569100
     12 N7          3.8110    1.4710   -3.7330 n2        1 5FD     -0.590900
     13 C5          2.5120    1.0750   -4.2930 c3        1 5FD      0.035200
     14 C4          1.5480    0.8380   -3.0260 c3        1 5FD      0.351700
     15 N3          0.3790    1.6810   -2.9270 n2        1 5FD     -0.677900
     16 C2          0.1490    2.5790   -3.8280 c2        1 5FD      0.661100
     17 N1          0.8960    2.8720   -4.9630 nh        1 5FD     -0.881200
     18 C6          2.0140    2.0860   -5.3390 c2        1 5FD      0.635200
     19 N6          2.6440    2.1420   -6.4660 n2        1 5FD     -0.788100
     20 HO2         0.3670    1.8140    1.4530 ho        1 5FD      0.417000
     21 H2'         0.4030   -0.0540   -0.6510 h1        1 5FD      0.110700
     22 H3''        1.7560   -1.3390    0.8070 h1        1 5FD      0.061700
     23 HO3         1.5430   -0.6880    2.9840 ho        1 5FD      0.412000
     24 H4'         3.4220    0.7240    2.1790 h1        1 5FD      0.092700
     25 H5'1        3.9660   -1.6990    1.0980 h1        1 5FD      0.055200
     26 H5'2        4.2590   -0.7180   -0.4260 h1        1 5FD      0.055200
     27 H1'         1.7410    2.5340   -0.6820 h2        1 5FD      0.090700
     28 HC8         4.5730    1.6110   -1.7450 h5        1 5FD      0.079800
     29 H55         2.6380    0.0820   -4.8120 h1        1 5FD      0.105700
     30 H44         1.1770   -0.2310   -3.0520 h2        1 5FD      0.091700
     31 HC2        -0.7700    3.1990   -3.7050 h5        1 5FD      0.046800
     32 HN1         0.5700    3.5810   -5.5770 hn        1 5FD      0.439800
     33 HN2         2.3310    2.8100   -7.1390 hn        1 5FD      0.389400
@<TRIPOS>BOND
     1    1    2 1
     2    1   20 1
     3    2    3 1
     4    2    9 1
     5    2   21 1
     6    3    4 1
     7    3    5 1
     8    3   22 1
     9    4   23 1
    10    5    6 1
    11    5    8 1
    12    5   24 1
    13    6    7 1
    14    6   25 1
    15    6   26 1
    16    8    9 1
    17    9   10 1
    18    9   27 1
    19   10   11 1
    20   10   14 1
    21   11   12 2
    22   11   28 1
    23   12   13 1
    24   13   14 1
    25   13   18 1
    26   13   29 1
    27   14   15 1
    28   14   30 1
    29   15   16 2
    30   16   17 1
    31   16   31 1
    32   17   18 1
    33   17   32 1
    34   18   19 2
    35   19   33 1
@<TRIPOS>SUBSTRUCTURE
     1 5FD         1 TEMP              0 ****  ****    0 ROOT
