@<TRIPOS>MOLECULE
molecule
   58    61     1     0     0
SMALL
bcc


@<TRIPOS>ATOM
      1 C1           0.0000     0.0000     0.0000 c3         1 5FF       0.210800
      2 C2           1.5320     0.0000     0.0000 c3         1 5FF      -0.096400
      3 C3           2.0270     0.0000     1.4540 c3         1 5FF       0.033000
      4 C5           0.1140     1.5710     1.7370 cc         1 5FF       0.190300
      5 C13          3.5160     0.3480     1.4940 c3         1 5FF       0.615900
      6 F56          3.9610     0.3470     2.8210 f          1 5FF      -0.213300
      7 F57          4.2370    -0.5990     0.7590 f          1 5FF      -0.213300
      8 C7          -0.5020    -0.1810    -1.4100 ca         1 5FF      -0.111300
      9 C8          -0.9260    -1.4250    -1.8380 ca         1 5FF      -0.103000
     10 C9          -1.3860    -1.5910    -3.1310 ca         1 5FF      -0.128000
     11 C10         -1.4220    -0.5140    -3.9950 ca         1 5FF      -0.068300
     12 C32         -1.9230    -0.6950    -5.4050 c3         1 5FF      -0.041100
     13 C33         -3.4320    -0.4500    -5.4450 c3         1 5FF      -0.087100
     14 C11         -0.9990     0.7300    -3.5670 ca         1 5FF      -0.128000
     15 C12         -0.5420     0.8980    -2.2730 ca         1 5FF      -0.103000
     16 N6          -0.4920     1.2780     0.5350 nu         1 5FF      -0.642600
     17 N4           1.2590     1.0120     2.1900 na         1 5FF       0.034400
     18 N19          1.5580     1.5600     3.4380 nc         1 5FF      -0.500800
     19 C18          0.6360     2.4260     3.7560 cd         1 5FF       0.378200
     20 C17         -0.3110     2.4730     2.7040 cd         1 5FF      -0.415900
     21 C20         -1.5120     3.3150     2.6450 c          1 5FF       0.715700
     22 O22         -2.2470     3.2600     1.6770 o          1 5FF      -0.635100
     23 N21         -1.8010     4.1490     3.6650 ns         1 5FF      -0.581900
     24 C23         -2.9990     4.9890     3.6060 c3         1 5FF       0.169300
     25 C24         -3.0900     5.8220     4.8590 ca         1 5FF      -0.159300
     26 C25         -2.4980     7.0710     4.9010 ca         1 5FF      -0.075000
     27 C26         -2.5800     7.8360     6.0490 ca         1 5FF      -0.194000
     28 C27         -3.2560     7.3500     7.1580 ca         1 5FF       0.149100
     29 O30         -3.3390     8.1020     8.2870 os         1 5FF      -0.327900
     30 C31         -4.0520     7.5390     9.3910 c3         1 5FF       0.128700
     31 C28         -3.8510     6.0980     7.1130 ca         1 5FF      -0.194000
     32 C29         -3.7700     5.3380     5.9600 ca         1 5FF      -0.075000
     33 H1          -0.3590    -0.8110     0.6220 h1         1 5FF       0.043700
     34 H2           1.8720     0.9130    -0.4740 hc         1 5FF       0.091200
     35 H3           1.8720    -0.9130    -0.4740 hc         1 5FF       0.091200
     36 H4           1.8610    -0.9750     1.8950 h1         1 5FF       0.096700
     37 H5          -0.8980    -2.2700    -1.1600 ha         1 5FF       0.140000
     38 H6          -1.7190    -2.5660    -3.4660 ha         1 5FF       0.135500
     39 H7          -1.4250     0.0110    -6.0580 hc         1 5FF       0.048700
     40 H8          -1.7120    -1.7040    -5.7360 hc         1 5FF       0.048700
     41 H9          -3.8090    -0.6770    -6.4350 hc         1 5FF       0.037700
     42 H10         -3.9210    -1.0870    -4.7180 hc         1 5FF       0.037700
     43 H11         -3.6360     0.5880    -5.2110 hc         1 5FF       0.037700
     44 H12         -1.0290     1.5760    -4.2440 ha         1 5FF       0.135500
     45 H13         -0.2100     1.8730    -1.9370 ha         1 5FF       0.140000
     46 H14         -1.4830     1.2260     0.6650 hn         1 5FF       0.429800
     47 H15          0.6010     3.0090     4.6680 h4         1 5FF       0.051100
     48 H16         -1.1930     4.2000     4.4580 hn         1 5FF       0.315500
     49 H17         -3.8770     4.3590     3.5260 h1         1 5FF       0.057200
     50 H18         -2.9420     5.6400     2.7420 h1         1 5FF       0.057200
     51 H19         -1.9700     7.4490     4.0350 ha         1 5FF       0.138000
     52 H20         -2.1160     8.8150     6.0820 ha         1 5FF       0.142000
     53 H21         -4.0410     8.2350    10.2210 h1         1 5FF       0.042700
     54 H22         -5.0760     7.3430     9.0970 h1         1 5FF       0.042700
     55 H23         -3.5780     6.6120     9.6910 h1         1 5FF       0.042700
     56 H24         -4.3820     5.7170     7.9770 ha         1 5FF       0.142000
     57 H25         -4.2340     4.3600     5.9240 ha         1 5FF       0.138000
     58 F58          3.7130     1.6170     0.9380 f          1 5FF      -0.213300
@<TRIPOS>BOND
     1     7     5 1
     2    58     5 1
     3     5     3 1
     4     5     6 1
     5     3     2 1
     6     3    17 1
     7     2     1 1
     8    15    14 ar
     9    15     8 ar
    10    17    18 1
    11    17     4 1
    12     1     8 1
    13     1    16 1
    14    14    11 ar
    15    18    19 2
    16     8     9 ar
    17    11    12 1
    18    11    10 ar
    19     4    16 1
    20     4    20 2
    21    12    13 1
    22     9    10 ar
    23    19    20 1
    24    20    21 1
    25    21    22 2
    26    21    23 1
    27    23    24 1
    28    24    25 1
    29    25    26 ar
    30    25    32 ar
    31    26    27 ar
    32    32    31 ar
    33    27    28 ar
    34    31    28 ar
    35    28    29 1
    36    29    30 1
    37     1    33 1
    38     2    34 1
    39     2    35 1
    40     3    36 1
    41     9    37 1
    42    10    38 1
    43    12    39 1
    44    12    40 1
    45    13    41 1
    46    13    42 1
    47    13    43 1
    48    14    44 1
    49    15    45 1
    50    16    46 1
    51    19    47 1
    52    23    48 1
    53    24    49 1
    54    24    50 1
    55    26    51 1
    56    27    52 1
    57    30    53 1
    58    30    54 1
    59    30    55 1
    60    31    56 1
    61    32    57 1
@<TRIPOS>SUBSTRUCTURE
     1 5FF         1 TEMP              0 ****  ****    0 ROOT
