@<TRIPOS>MOLECULE
molecule
   24    25     1     0     0
SMALL
bcc


@<TRIPOS>ATOM
      1 N1           0.0000     0.0000     0.0000 ns         1 5FH      -0.583900
      2 C1           1.3220     0.0000     0.0000 c          1 5FH       0.821500
      3 O1           2.0890     0.0010    -0.9360 o          1 5FH      -0.631500
      4 N2           1.7450     0.0000     1.3020 ns         1 5FH      -0.586500
      5 C2           0.7230     0.0020     2.1350 c          1 5FH       0.693500
      6 O2           0.8170     0.0080     3.3540 o          1 5FH      -0.598500
      7 C3          -0.5570     0.0040     1.3160 c3         1 5FH       0.024700
      8 C4          -1.4820    -1.2280     1.5840 c3         1 5FH      -0.020100
      9 C5          -0.7420    -2.5170     1.8440 ca         1 5FH      -0.110300
     10 C6           0.1540    -4.1920     3.4330 ca         1 5FH      -0.129000
     11 C7          -0.2090    -3.2770     0.7980 ca         1 5FH      -0.112500
     12 C8           0.4950    -4.4740     1.0670 ca         1 5FH      -0.129000
     13 C9           0.6730    -4.9210     2.3870 ca         1 5FH      -0.121000
     14 C10         -0.5590    -2.9840     3.1790 ca         1 5FH      -0.112500
     15 H1          -0.5530    -0.0000    -0.8340 hn         1 5FH       0.351500
     16 H3          -1.1000     0.9260     1.4840 h1         1 5FH       0.086700
     17 H2           2.7050    -0.0000     1.5850 hn         1 5FH       0.364500
     18 H41C        -2.1040    -1.0100     2.4440 hc         1 5FH       0.062200
     19 H42C        -2.1230    -1.3690     0.7220 hc         1 5FH       0.062200
     20 H7          -0.3380    -2.9470    -0.2260 ha         1 5FH       0.134500
     21 H10         -0.9650    -2.4150     4.0070 ha         1 5FH       0.134500
     22 H6           0.2890    -4.5360     4.4520 ha         1 5FH       0.134000
     23 H9           1.2150    -5.8390     2.5800 ha         1 5FH       0.132000
     24 H8           0.9040    -5.0510     0.2460 ha         1 5FH       0.134000
@<TRIPOS>BOND
     1     1     2 1
     2     1     7 1
     3     2     3 2
     4     2     4 1
     5     4     5 1
     6     5     6 2
     7     5     7 1
     8     7     8 1
     9     8     9 1
    10     9    11 ar
    11     9    14 ar
    12    10    13 ar
    13    10    14 ar
    14    11    12 ar
    15    12    13 ar
    16     1    15 1
    17     7    16 1
    18     4    17 1
    19     8    18 1
    20     8    19 1
    21    11    20 1
    22    14    21 1
    23    10    22 1
    24    13    23 1
    25    12    24 1
@<TRIPOS>SUBSTRUCTURE
     1 5FH         1 TEMP              0 ****  ****    0 ROOT
