@<TRIPOS>MOLECULE
5FI
   49    52     1     0     0
SMALL
bcc


@<TRIPOS>ATOM
      1 C4           0.0000     0.0000     0.0000 ca         1 5FI       0.516200
      2 C5           1.3970     0.0000     0.0000 ca         1 5FI      -0.295900
      3 C6           2.0520     0.0000     1.2160 ca         1 5FI       0.440200
      4 N1           1.3400    -0.0000     2.3340 nb         1 5FI      -0.628000
      5 N3          -0.6430     0.0000     1.1630 nb         1 5FI      -0.652000
      6 FAB         -7.1280    -7.2260    -3.5050 f          1 5FI      -0.208633
      7 FAC         -6.5370    -6.9200    -5.6900 f          1 5FI      -0.208633
      8 FAD         -8.7100    -6.6360    -5.0450 f          1 5FI      -0.208633
      9 CAU         -7.1020    -5.0200    -4.3830 ca         1 5FI      -0.225300
     10 CAE         -8.1240    -4.2090    -3.9100 ca         1 5FI      -0.047000
     11 CAF         -7.8930    -2.8740    -3.6500 ca         1 5FI      -0.085000
     12 CAI         -5.8510    -4.5140    -4.5940 ca         1 5FI       0.029000
     13 CAX         -5.5940    -3.1650    -4.3390 ca         1 5FI       0.054400
     14 CAY         -6.6290    -2.3420    -3.8640 ca         1 5FI      -0.258200
     15 NAS         -6.0770    -1.0850    -3.7110 na         1 5FI       0.291700
     16 NAR         -4.4870    -2.3860    -4.4460 nc         1 5FI      -0.511100
     17 CAV         -4.7720    -1.1690    -4.0850 cd         1 5FI       0.209800
     18 NAZ         -3.0480    -0.0280    -2.8070 n3         1 5FI      -0.547600
     19 CAL         -2.2610     1.2030    -2.6540 c3         1 5FI       0.146800
     20 CAN         -1.5630     1.1940    -1.2920 c3         1 5FI       0.151300
     21 CAK         -2.1890    -1.2150    -2.7090 c3         1 5FI       0.146800
     22 CAM         -1.4910    -1.2250    -1.3460 c3         1 5FI       0.151300
     23 NBA         -0.7030     0.0060    -1.1940 nh         1 5FI      -0.517300
     24 CAJ          2.1700     0.0000    -1.2930 c3         1 5FI       0.040900
     25 CAA          2.3370     1.4380    -1.7890 c3         1 5FI       0.008900
     26 C2           0.0230     0.0000     2.3000 ca         1 5FI       0.629900
     27 H1           3.1350    -0.0000     1.2550 h4         1 5FI      -0.009900
     28 H2          -9.1100    -4.6260    -3.7440 ha         1 5FI       0.119000
     29 H3          -8.6930    -2.2450    -3.2820 ha         1 5FI       0.107000
     30 H4          -5.0450    -5.1710    -4.8990 ha         1 5FI       0.124000
     31 H7          -3.1040    -0.1260    -4.9000 h1         1 5FI       0.021200
     32 H8          -4.3340     0.9130    -4.1680 h1         1 5FI       0.021200
     33 H10         -1.5160     1.2550    -3.4400 h1         1 5FI       0.022700
     34 H11         -2.9190     2.0620    -2.7160 h1         1 5FI       0.022700
     35 H12         -0.9580     2.0860    -1.1910 h1         1 5FI       0.025700
     36 H13         -2.3080     1.1650    -0.5060 h1         1 5FI       0.025700
     37 H14         -2.7950    -2.1070    -2.8090 h1         1 5FI       0.022700
     38 H15         -1.4440    -1.1870    -3.4950 h1         1 5FI       0.022700
     39 H16         -0.8330    -2.0830    -1.2840 h1         1 5FI       0.025700
     40 H17         -2.2350    -1.2760    -0.5600 h1         1 5FI       0.025700
     41 H18          1.6310    -0.5770    -2.0360 hc         1 5FI       0.025200
     42 H19          3.1450    -0.4420    -1.1310 hc         1 5FI       0.025200
     43 H20          1.8520     2.1170    -1.0970 hc         1 5FI       0.004033
     44 H21          1.8860     1.5380    -2.7680 hc         1 5FI       0.004033
     45 H22          3.3920     1.6780    -1.8510 hc         1 5FI       0.004033
     46 H23         -0.5270     0.0000     3.2330 h5         1 5FI       0.000100
     47 H5          -6.5500    -0.2640    -3.3910 hn         1 5FI       0.131700
     48 CAO         -3.7950    -0.0210    -4.0720 c3         1 5FI       0.165500
     49 CBB         -7.3750    -6.4770    -4.6600 c3         1 5FI       0.642200
@<TRIPOS>BOND
     1     1     2 ar  
     2     1     5 ar  
     3     1    23 1   
     4     2     3 ar  
     5     2    24 1   
     6     3     4 ar  
     7     3    27 1   
     8     4    26 ar  
     9     5    26 ar  
    10     6    49 1   
    11     7    49 1   
    12     8    49 1   
    13     9    10 ar  
    14     9    12 ar  
    15     9    49 1   
    16    10    11 ar  
    17    10    28 1   
    18    11    14 ar  
    19    11    29 1   
    20    12    13 ar  
    21    12    30 1   
    22    13    14 ar  
    23    13    16 1   
    24    14    15 1   
    25    15    17 1   
    26    15    47 1   
    27    16    17 2   
    28    17    48 1   
    29    18    19 1   
    30    18    21 1   
    31    18    48 1   
    32    19    20 1   
    33    19    33 1   
    34    19    34 1   
    35    20    23 1   
    36    20    35 1   
    37    20    36 1   
    38    21    22 1   
    39    21    37 1   
    40    21    38 1   
    41    22    23 1   
    42    22    39 1   
    43    22    40 1   
    44    24    25 1   
    45    24    41 1   
    46    24    42 1   
    47    25    43 1   
    48    25    44 1   
    49    25    45 1   
    50    26    46 1   
    51    31    48 1   
    52    32    48 1   
@<TRIPOS>SUBSTRUCTURE
     1 5FI         1 TEMP              0 ****  ****    0 ROOT
