@<TRIPOS>MOLECULE
5FK
   53    56     1     0     0
SMALL
bcc


@<TRIPOS>ATOM
      1 C1           0.0000     0.0000     0.0000 c3         1 5FK       0.156800
      2 C2           1.5320     0.0000     0.0000 c3         1 5FK      -0.043400
      3 C3           2.0280     0.0000     1.4540 c3         1 5FK      -0.089000
      4 C5           0.1170     1.5720     1.7360 cc         1 5FK      -0.044700
      5 C7          -0.5020    -0.1810    -1.4090 ca         1 5FK      -0.121300
      6 C8          -0.5310     0.8940    -2.2770 ca         1 5FK      -0.078000
      7 C9          -0.9910     0.7280    -3.5690 ca         1 5FK      -0.097500
      8 C10         -1.4230    -0.5150    -3.9940 ca         1 5FK      -0.077300
      9 C11         -1.3930    -1.5910    -3.1270 ca         1 5FK      -0.097500
     10 C12         -0.9280    -1.4250    -1.8360 ca         1 5FK      -0.078000
     11 C13          3.5180     0.3470     1.4930 c3         1 5FK       0.577900
     12 C17         -0.3070     2.4760     2.7010 cd         1 5FK      -0.439900
     13 C18          0.6400     2.4300     3.7540 cd         1 5FK       0.447200
     14 C20         -1.5070     3.3200     2.6430 c          1 5FK       0.650700
     15 C23         -2.9910     4.9960     3.6020 c3         1 5FK       0.012700
     16 C24         -3.0800     5.8320     4.8540 ca         1 5FK       0.326600
     17 C25         -2.5800     7.1200     4.8510 ca         1 5FK      -0.173300
     18 C26         -2.6720     7.8840     6.0040 ca         1 5FK      -0.102000
     19 C27         -3.2670     7.3180     7.1250 ca         1 5FK      -0.004400
     20 C28         -3.7430     6.0210     7.0520 ca         1 5FK       0.373200
     21 C32         -1.9260    -0.6960    -5.4040 c3         1 5FK       0.027900
     22 F58          4.2380    -0.6010     0.7590 f          1 5FK      -0.197633
     23 F57          3.7160     1.6160     0.9370 f          1 5FK      -0.197633
     24 F56          3.9620     0.3460     2.8200 f          1 5FK      -0.197633
     25 C33         -0.7580    -1.0720    -6.3170 c3         1 5FK       0.008900
     26 N6          -0.4920     1.2790     0.5350 nu         1 5FK      -0.338600
     27 N4           1.2610     1.0130     2.1880 na         1 5FK       0.450400
     28 N19          1.5610     1.5610     3.4360 nc         1 5FK      -0.642800
     29 O22         -2.2430     3.2630     1.6760 o          1 5FK      -0.675100
     30 N21         -1.7930     4.1550     3.6610 ns         1 5FK      -0.189900
     31 N29         -3.6380     5.3260     5.9360 nb         1 5FK      -0.537000
     32 F30         -3.3770     8.0240     8.2710 f          1 5FK      -0.117900
     33 H1          -0.3590    -0.8110     0.6230 h1         1 5FK       0.022700
     34 H2           1.8720     0.9130    -0.4740 hc         1 5FK       0.058200
     35 H3           1.8720    -0.9130    -0.4740 hc         1 5FK       0.058200
     36 H4           1.8620    -0.9750     1.8960 h1         1 5FK       0.071700
     37 H5          -0.1930     1.8680    -1.9440 ha         1 5FK       0.112500
     38 H6          -1.0140     1.5710    -4.2490 ha         1 5FK       0.110000
     39 H7          -1.7290    -2.5650    -3.4610 ha         1 5FK       0.110000
     40 H8          -0.9050    -2.2690    -1.1570 ha         1 5FK       0.112500
     41 H9           0.6060     3.0140     4.6650 h4         1 5FK       0.004100
     42 H10         -3.8700     4.3680     3.5240 h1         1 5FK       0.035700
     43 H11         -2.9340     5.6460     2.7370 h1         1 5FK       0.035700
     44 H12         -2.1230     7.5280     3.9580 ha         1 5FK       0.124000
     45 H13         -2.2890     8.8970     6.0310 ha         1 5FK       0.127000
     46 H14         -4.2090     5.5710     7.9200 h4         1 5FK      -0.003900
     47 H15         -2.6690    -1.4840    -5.4240 hc         1 5FK       0.017700
     48 H16         -2.3710     0.2290    -5.7500 hc         1 5FK       0.017700
     49 H17         -0.0110    -0.2880    -6.2900 hc         1 5FK       0.003033
     50 H18         -0.3180    -2.0020    -5.9760 hc         1 5FK       0.003033
     51 H19         -1.1180    -1.1940    -7.3320 hc         1 5FK       0.003033
     52 H20         -1.4830     1.2260     0.6660 hn         1 5FK       0.307800
     53 H21         -1.2030     4.1800     4.4690 hn         1 5FK       0.176500
@<TRIPOS>BOND
     1     1     2 1   
     2     1     5 1   
     3     1    26 1   
     4     1    33 1   
     5     2     3 1   
     6     2    34 1   
     7     2    35 1   
     8     3    11 1   
     9     3    27 1   
    10     3    36 1   
    11     4    12 2   
    12     4    26 1   
    13     4    27 1   
    14     5     6 ar  
    15     5    10 ar  
    16     6     7 ar  
    17     6    37 1   
    18     7     8 ar  
    19     7    38 1   
    20     8     9 ar  
    21     8    21 1   
    22     9    10 ar  
    23     9    39 1   
    24    10    40 1   
    25    11    22 1   
    26    11    23 1   
    27    11    24 1   
    28    12    13 1   
    29    12    14 1   
    30    13    28 2   
    31    13    41 1   
    32    14    29 2   
    33    14    30 1   
    34    15    16 1   
    35    15    30 1   
    36    15    42 1   
    37    15    43 1   
    38    16    17 ar  
    39    16    31 ar  
    40    17    18 ar  
    41    17    44 1   
    42    18    19 ar  
    43    18    45 1   
    44    19    20 ar  
    45    19    32 1   
    46    20    31 ar  
    47    20    46 1   
    48    21    25 1   
    49    21    47 1   
    50    21    48 1   
    51    25    49 1   
    52    25    50 1   
    53    25    51 1   
    54    26    52 1   
    55    27    28 1   
    56    30    53 1   
@<TRIPOS>SUBSTRUCTURE
     1 5FK         1 TEMP              0 ****  ****    0 ROOT
