@<TRIPOS>MOLECULE
molecule
   53    56     1     0     0
SMALL
bcc


@<TRIPOS>ATOM
      1 C1           0.0000     0.0000     0.0000 c3         1 5FK       0.210800
      2 C2           1.5320     0.0000     0.0000 c3         1 5FK      -0.097400
      3 C3           2.0280     0.0000     1.4540 c3         1 5FK       0.033000
      4 C5           0.1170     1.5720     1.7360 cc         1 5FK       0.192300
      5 C7          -0.5020    -0.1810    -1.4090 ca         1 5FK      -0.110300
      6 C8          -0.5310     0.8940    -2.2770 ca         1 5FK      -0.103500
      7 C9          -0.9910     0.7280    -3.5690 ca         1 5FK      -0.128000
      8 C10         -1.4230    -0.5150    -3.9940 ca         1 5FK      -0.068300
      9 C11         -1.3930    -1.5910    -3.1270 ca         1 5FK      -0.128000
     10 C12         -0.9280    -1.4250    -1.8360 ca         1 5FK      -0.103500
     11 C13          3.5180     0.3470     1.4930 c3         1 5FK       0.615900
     12 C17         -0.3070     2.4760     2.7010 cc         1 5FK      -0.416900
     13 C18          0.6400     2.4300     3.7540 cc         1 5FK       0.378200
     14 C20         -1.5070     3.3200     2.6430 c          1 5FK       0.719700
     15 C23         -2.9910     4.9960     3.6020 c3         1 5FK       0.075700
     16 C24         -3.0800     5.8320     4.8540 ca         1 5FK       0.378600
     17 C25         -2.5800     7.1200     4.8510 ca         1 5FK      -0.209300
     18 C26         -2.6720     7.8840     6.0040 ca         1 5FK      -0.136000
     19 C27         -3.2670     7.3180     7.1250 ca         1 5FK       0.014600
     20 C28         -3.7430     6.0210     7.0520 ca         1 5FK       0.386200
     21 C32         -1.9260    -0.6960    -5.4040 c3         1 5FK      -0.041100
     22 F58          4.2380    -0.6010     0.7590 f          1 5FK      -0.213300
     23 F57          3.7160     1.6160     0.9370 f          1 5FK      -0.213300
     24 F56          3.9620     0.3460     2.8200 f          1 5FK      -0.213300
     25 C33         -0.7580    -1.0720    -6.3170 c3         1 5FK      -0.088100
     26 N6          -0.4920     1.2790     0.5350 nu         1 5FK      -0.642600
     27 N4           1.2610     1.0130     2.1880 na         1 5FK       0.036400
     28 N19          1.5610     1.5610     3.4360 nd         1 5FK      -0.499800
     29 O22         -2.2430     3.2630     1.6760 o          1 5FK      -0.633100
     30 N21         -1.7930     4.1550     3.6610 ns         1 5FK      -0.579900
     31 N29         -3.6380     5.3260     5.9360 nb         1 5FK      -0.655000
     32 F30         -3.3770     8.0240     8.2710 f          1 5FK      -0.130900
     33 H1          -0.3590    -0.8110     0.6230 h1         1 5FK       0.044700
     34 H2           1.8720     0.9130    -0.4740 hc         1 5FK       0.091200
     35 H3           1.8720    -0.9130    -0.4740 hc         1 5FK       0.091200
     36 H4           1.8620    -0.9750     1.8960 h1         1 5FK       0.097700
     37 H5          -0.1930     1.8680    -1.9440 ha         1 5FK       0.139500
     38 H6          -1.0140     1.5710    -4.2490 ha         1 5FK       0.135500
     39 H7          -1.7290    -2.5650    -3.4610 ha         1 5FK       0.135500
     40 H8          -0.9050    -2.2690    -1.1570 ha         1 5FK       0.139500
     41 H9           0.6060     3.0140     4.6650 h4         1 5FK       0.051100
     42 H10         -3.8700     4.3680     3.5240 h1         1 5FK       0.068700
     43 H11         -2.9340     5.6460     2.7370 h1         1 5FK       0.068700
     44 H12         -2.1230     7.5280     3.9580 ha         1 5FK       0.152000
     45 H13         -2.2890     8.8970     6.0310 ha         1 5FK       0.156000
     46 H14         -4.2090     5.5710     7.9200 h4         1 5FK       0.040100
     47 H15         -2.6690    -1.4840    -5.4240 hc         1 5FK       0.049700
     48 H16         -2.3710     0.2290    -5.7500 hc         1 5FK       0.049700
     49 H17         -0.0110    -0.2880    -6.2900 hc         1 5FK       0.037033
     50 H18         -0.3180    -2.0020    -5.9760 hc         1 5FK       0.037033
     51 H19         -1.1180    -1.1940    -7.3320 hc         1 5FK       0.037033
     52 H20         -1.4830     1.2260     0.6660 hn         1 5FK       0.430800
     53 H21         -1.2030     4.1800     4.4690 hn         1 5FK       0.317500
@<TRIPOS>BOND
     1    32    19 1   
     2    18    19 ar  
     3    18    17 ar  
     4    19    20 ar  
     5    17    16 ar  
     6    20    31 ar  
     7    16    31 ar  
     8    16    15 1   
     9    15    30 1   
    10    30    14 1   
    11    14    29 2   
    12    14    12 1   
    13    13    12 1   
    14    13    28 2   
    15    12     4 2   
    16    28    27 1   
    17     4    27 1   
    18     4    26 1   
    19    27     3 1   
    20    22    11 1   
    21    26     1 1   
    22    24    11 1   
    23     3    11 1   
    24     3     2 1   
    25    11    23 1   
    26     1     2 1   
    27     1     5 1   
    28     6     5 ar  
    29     6     7 ar  
    30     5    10 ar  
    31     7     8 ar  
    32    10     9 ar  
    33     8     9 ar  
    34     8    21 1   
    35    25    21 1   
    36     1    33 1   
    37     2    34 1   
    38     2    35 1   
    39     3    36 1   
    40     6    37 1   
    41     7    38 1   
    42     9    39 1   
    43    10    40 1   
    44    13    41 1   
    45    15    42 1   
    46    15    43 1   
    47    17    44 1   
    48    18    45 1   
    49    20    46 1   
    50    21    47 1   
    51    21    48 1   
    52    25    49 1   
    53    25    50 1   
    54    25    51 1   
    55    26    52 1   
    56    30    53 1   
@<TRIPOS>SUBSTRUCTURE
     1 5FK         1 TEMP              0 ****  ****    0 ROOT
