@<TRIPOS>MOLECULE
molecule
   23    24     1     0     0
SMALL
bcc


@<TRIPOS>ATOM
      1 C1           0.0000     0.0000     0.0000 ca         1 5FL      -0.257800
      2 C2           1.3980     0.0000     0.0000 cp         1 5FL       0.036000
      3 C3           2.0580     0.0000     1.2310 ca         1 5FL      -0.257800
      4 C4           1.3120     0.0000     2.3920 ca         1 5FL       0.408200
      5 C5           2.1580    -0.0020    -1.2740 cp         1 5FL      -0.097000
      6 C6           3.5500    -0.0080    -1.2540 ca         1 5FL      -0.081000
      7 C7           4.2590    -0.0100    -2.4540 ca         1 5FL      -0.107600
      8 C8           3.5680    -0.0050    -3.6690 ca         1 5FL      -0.077000
      9 O            6.3350    -0.0200    -1.3860 o          1 5FL      -0.834300
     10 C11          5.7360    -0.0160    -2.4430 c          1 5FL       0.882200
     11 O1           6.4190    -0.0180    -3.6040 o          1 5FL      -0.834300
     12 C9           2.1880     0.0010    -3.6800 ca         1 5FL      -0.168000
     13 C10          1.4810    -0.0020    -2.4920 ca         1 5FL      -0.131000
     14 C           -0.6690     0.0070     1.2070 ca         1 5FL       0.408200
     15 N           -0.0060     0.0010     2.3480 nb         1 5FL      -0.722000
     16 H1          -0.5500     0.0030    -0.9330 ha         1 5FL       0.146000
     17 H2           3.1410    -0.0000     1.2750 ha         1 5FL       0.146000
     18 H3           1.8150    -0.0020     3.3510 h4         1 5FL       0.009100
     19 H4           4.0800    -0.0120    -0.3090 ha         1 5FL       0.149000
     20 H5           4.1160    -0.0040    -4.6030 ha         1 5FL       0.156000
     21 H6           1.6560     0.0030    -4.6240 ha         1 5FL       0.108000
     22 H7           0.3980     0.0030    -2.5080 ha         1 5FL       0.106000
     23 H           -1.7520     0.0070     1.2180 h4         1 5FL       0.009100
@<TRIPOS>BOND
     1    15     4 ar  
     2    15    14 ar  
     3     4     3 ar  
     4    14     1 ar  
     5     3     2 ar  
     6     1     2 ar  
     7     2     5 1   
     8     5    13 ar  
     9     5     6 ar  
    10    13    12 ar  
    11     6     7 ar  
    12    12     8 ar  
    13     7     8 ar  
    14     7    10 1   
    15     9    10 1   
    16    10    11 1   
    17     1    16 1   
    18     3    17 1   
    19     4    18 1   
    20     6    19 1   
    21     8    20 1   
    22    12    21 1   
    23    13    22 1   
    24    14    23 1   
@<TRIPOS>SUBSTRUCTURE
     1 5FL         1 TEMP              0 ****  ****    0 ROOT
