@<TRIPOS>MOLECULE
molecule
   27    28     1     0     0
SMALL
bcc


@<TRIPOS>ATOM
      1 F1           1.3990     0.0000     0.0000 f          1 5FN      -0.226300
      2 C5           0.0000     0.0000     0.0000 c3         1 5FN       0.380100
      3 C6          -0.5160     0.0000     1.4400 c3         1 5FN       0.139400
      4 O24         -1.9450    -0.0010     1.4320 oh         1 5FN      -0.605800
      5 C4          -0.5180     1.2410    -0.7350 c3         1 5FN       0.101100
      6 O22         -0.1030     2.4190    -0.0400 oh         1 5FN      -0.594800
      7 C3           0.0660     1.2450    -2.1440 c3         1 5FN       0.131100
      8 O21         -0.4690     2.3570    -2.8660 oh         1 5FN      -0.600800
      9 O23         -0.4790    -1.1540    -0.6830 os         1 5FN      -0.383600
     10 C1          -0.1530    -1.2960    -2.0380 c3         1 5FN       0.319900
     11 O1           1.2200    -1.6770    -2.2360 os         1 5FN      -0.449400
     12 C7           1.5860    -1.1980    -3.4430 c2         1 5FN       0.586600
     13 C9           2.7890    -1.7040    -4.1960 c3         1 5FN      -0.099400
     14 N1           0.8130    -0.2720    -3.8950 n2         1 5FN      -0.662900
     15 C2          -0.2590    -0.0330    -2.8950 c3         1 5FN       0.035500
     16 H61C        -0.1570    -0.8840     1.9520 h1         1 5FN       0.055200
     17 H62C        -0.1590     0.8850     1.9520 h1         1 5FN       0.055200
     18 H4          -1.5990     1.2060    -0.7900 h1         1 5FN       0.084700
     19 H24         -2.2640    -0.2380     2.2880 ho         1 5FN       0.414000
     20 H22         -0.7700     3.0810    -0.1180 ho         1 5FN       0.420000
     21 H3           1.1420     1.3480    -2.0770 h1         1 5FN       0.068700
     22 H21          0.2370     2.8490    -3.2530 ho         1 5FN       0.417000
     23 H2          -1.2280     0.0310    -3.3760 h1         1 5FN       0.109700
     24 H1          -0.7910    -2.0610    -2.4670 h2         1 5FN       0.104700
     25 H91C         2.6030    -1.6360    -5.2610 hc         1 5FN       0.067033
     26 H92C         3.6540    -1.1020    -3.9420 hc         1 5FN       0.067033
     27 H93C         2.9770    -2.7360    -3.9270 hc         1 5FN       0.067033
@<TRIPOS>BOND
     1     1     2 1
     2     2     3 1
     3     2     5 1
     4     2     9 1
     5     3     4 1
     6     5     6 1
     7     5     7 1
     8     7     8 1
     9     7    15 1
    10     9    10 1
    11    10    11 1
    12    10    15 1
    13    11    12 1
    14    12    13 1
    15    12    14 2
    16    14    15 1
    17     3    16 1
    18     3    17 1
    19     5    18 1
    20     4    19 1
    21     6    20 1
    22     7    21 1
    23     8    22 1
    24    15    23 1
    25    10    24 1
    26    13    25 1
    27    13    26 1
    28    13    27 1
@<TRIPOS>SUBSTRUCTURE
     1 5FN         1 TEMP              0 ****  ****    0 ROOT
