@<TRIPOS>MOLECULE
5FN
   27    28     1     0     0
SMALL
bcc


@<TRIPOS>ATOM
      1 F1           1.3990     0.0000     0.0000 f          1 5FN      -0.224300
      2 C5           0.0000     0.0000     0.0000 c3         1 5FN       0.361100
      3 C6          -0.5160     0.0000     1.4400 c3         1 5FN       0.210400
      4 O24         -1.9450    -0.0010     1.4320 oh         1 5FN      -0.586800
      5 C4          -0.5180     1.2410    -0.7350 c3         1 5FN       0.129100
      6 O22         -0.1030     2.4190    -0.0400 oh         1 5FN      -0.573800
      7 C3           0.0660     1.2450    -2.1440 c3         1 5FN       0.166100
      8 O21         -0.4690     2.3570    -2.8660 oh         1 5FN      -0.581800
      9 O23         -0.4790    -1.1540    -0.6830 os         1 5FN      -0.372600
     10 C1          -0.1530    -1.2960    -2.0380 c3         1 5FN       0.378900
     11 O1           1.2200    -1.6770    -2.2360 os         1 5FN      -0.427400
     12 C7           1.5860    -1.1980    -3.4430 c2         1 5FN       0.594600
     13 C9           2.7890    -1.7040    -4.1960 c3         1 5FN       0.005600
     14 N1           0.8130    -0.2720    -3.8950 n2         1 5FN      -0.642900
     15 C2          -0.2590    -0.0330    -2.8950 c3         1 5FN       0.048500
     16 H61C        -0.1570    -0.8840     1.9520 h1         1 5FN       0.015200
     17 H62C        -0.1590     0.8850     1.9520 h1         1 5FN       0.015200
     18 H4          -1.5990     1.2060    -0.7900 h1         1 5FN       0.049700
     19 H24         -2.2640    -0.2380     2.2880 ho         1 5FN       0.399000
     20 H22         -0.7700     3.0810    -0.1180 ho         1 5FN       0.405000
     21 H3           1.1420     1.3480    -2.0770 h1         1 5FN       0.033700
     22 H21          0.2370     2.8490    -3.2530 ho         1 5FN       0.403000
     23 H2          -1.2280     0.0310    -3.3760 h1         1 5FN       0.071700
     24 H1          -0.7910    -2.0610    -2.4670 h2         1 5FN       0.049700
     25 H91C         2.6030    -1.6360    -5.2610 hc         1 5FN       0.023700
     26 H92C         3.6540    -1.1020    -3.9420 hc         1 5FN       0.023700
     27 H93C         2.9770    -2.7360    -3.9270 hc         1 5FN       0.023700
@<TRIPOS>BOND
     1     1     2 1   
     2     2     3 1   
     3     2     5 1   
     4     2     9 1   
     5     3     4 1   
     6     3    16 1   
     7     3    17 1   
     8     4    19 1   
     9     5     6 1   
    10     5     7 1   
    11     5    18 1   
    12     6    20 1   
    13     7     8 1   
    14     7    15 1   
    15     7    21 1   
    16     8    22 1   
    17     9    10 1   
    18    10    11 1   
    19    10    15 1   
    20    10    24 1   
    21    11    12 1   
    22    12    13 1   
    23    12    14 2   
    24    13    25 1   
    25    13    26 1   
    26    13    27 1   
    27    14    15 1   
    28    15    23 1   
@<TRIPOS>SUBSTRUCTURE
     1 5FN         1 TEMP              0 ****  ****    0 ROOT
