@<TRIPOS>MOLECULE
molecule
   57    59     1     0     0
SMALL
bcc


@<TRIPOS>ATOM
      1 CAA          0.0000     0.0000     0.0000 c3         1 5FO      -0.092100
      2 CAB          5.2080    -1.4390    -2.7910 c3         1 5FO      -0.087100
      3 OAD          9.6160     0.0010     0.1250 o          1 5FO      -0.620500
      4 OAE          7.4300     0.5470     6.5020 o          1 5FO      -0.632800
      5 OAF          5.1970     0.5400     7.6250 o          1 5FO      -0.632800
      6 FAG          8.3800    -0.0020    -2.3010 f          1 5FO      -0.136500
      7 CAH          3.9630     0.0000     5.0450 ca         1 5FO       0.020000
      8 CAI          3.3340    -0.0000     3.8160 ca         1 5FO      -0.247000
      9 CAJ          6.1090     0.0010     3.9780 ca         1 5FO       0.020000
     10 CAK          1.5300     0.0000     0.0000 c3         1 5FO      -0.081400
     11 CAL          5.5740    -0.0020    -2.4170 c3         1 5FO      -0.030200
     12 CAM          2.0410     0.0000     1.4420 c3         1 5FO       0.128400
     13 CAN          7.1920    -3.6210     6.1040 c3         1 5FO       0.144800
     14 CAO          5.0220    -3.6220     7.1870 c3         1 5FO       0.144800
     15 CAP          7.5820    -2.3000     6.7770 c3         1 5FO       0.241300
     16 CAQ          5.3240    -2.3010     7.9040 c3         1 5FO       0.241300
     17 NAR          5.6820     0.0000     0.0410 nc         1 5FO      -0.622300
     18 NAS          7.6840     0.0010     1.2440 ns         1 5FO      -0.443400
     19 OAT          3.4700     0.0000     1.4410 os         1 5FO      -0.279900
     20 CAU          5.3460     0.0010     5.1250 ca         1 5FO      -0.353500
     21 CAV          4.0870     0.0000     2.6510 ca         1 5FO       0.222100
     22 CAW          6.3390    -0.0010    -1.1180 cc         1 5FO       0.165400
     23 CAX          7.7040    -0.0000    -1.1300 cd         1 5FO      -0.037700
     24 CAY          5.4850     0.0010     2.7270 ca         1 5FO      -0.167900
     25 CAZ          6.3200     0.0010     1.1930 cd         1 5FO       0.538500
     26 CBA          8.3970     0.0010     0.0980 c          1 5FO       0.670700
     27 NBB          6.2750    -4.3610     6.9810 n3         1 5FO      -0.726600
     28 NBC          6.3530    -1.5800     7.1410 n3         1 5FO      -0.819500
     29 HAA         -0.3610    -0.9050     0.4740 hc         1 5FO       0.039033
     30 HAAA        -0.3610     0.8630     0.5460 hc         1 5FO       0.039033
     31 HAAB        -0.3610     0.0410    -1.0210 hc         1 5FO       0.039033
     32 HAB          4.8680    -1.9670    -1.9090 hc         1 5FO       0.041700
     33 HABA         6.0780    -1.9390    -3.1990 hc         1 5FO       0.041700
     34 HABB         4.4170    -1.4280    -3.5320 hc         1 5FO       0.041700
     35 HAC          5.4290    -6.2690     7.1730 h1         1 5FO       0.034367
     36 HACA         6.9510    -6.2140     6.2720 h1         1 5FO       0.034367
     37 HACB         5.4580    -5.6270     5.5240 h1         1 5FO       0.034367
     38 HAH          3.3710    -0.0000     5.9520 ha         1 5FO       0.155000
     39 HAI          2.2520    -0.0010     3.7610 ha         1 5FO       0.151000
     40 HAJ          7.1900     0.0020     4.0450 ha         1 5FO       0.152000
     41 HAK          1.8910     0.8840    -0.5110 hc         1 5FO       0.060200
     42 HAKA         1.8910    -0.8840    -0.5110 hc         1 5FO       0.060200
     43 HAL          4.6700     0.5840    -2.3040 hc         1 5FO       0.065700
     44 HALA         6.1890     0.4290    -3.1980 hc         1 5FO       0.065700
     45 HAM          1.6800     0.8840     1.9520 h1         1 5FO       0.038200
     46 HAMA         1.6800    -0.8850     1.9520 h1         1 5FO       0.038200
     47 HAN          6.7000    -3.4130     5.1620 h1         1 5FO       0.039950
     48 HANA         8.0820    -4.2140     5.9310 h1         1 5FO       0.039950
     49 HAO          4.5640    -3.4150     6.2270 h1         1 5FO       0.039950
     50 HAOA         4.3490    -4.2160     7.7940 h1         1 5FO       0.039950
     51 HAP          8.1610    -2.5050     7.6690 h1         1 5FO       0.064700
     52 HAPA         8.1640    -1.7000     6.0880 h1         1 5FO       0.064700
     53 HAQ          5.6890    -2.5060     8.9030 h1         1 5FO       0.064700
     54 HAQA         4.4230    -1.7020     7.9560 h1         1 5FO       0.064700
     55 HNAS         8.1530     0.0010     2.1280 hn         1 5FO       0.343500
     56 SBD          6.1330     0.0020     6.7020 sy         1 5FO       1.427200
     57 CAC          6.0110    -5.7060     6.4530 c3         1 5FO       0.152100
@<TRIPOS>BOND
     1     1    10 1
     2     2    11 1
     3    57    27 1
     4     3    26 2
     5     4    56 2
     6     5    56 2
     7     6    23 1
     8     7     8 ar
     9     7    20 ar
    10     8    21 ar
    11     9    20 ar
    12     9    24 ar
    13    10    12 1
    14    11    22 1
    15    12    19 1
    16    13    15 1
    17    13    27 1
    18    14    16 1
    19    14    27 1
    20    15    28 1
    21    16    28 1
    22    17    22 1
    23    17    25 2
    24    18    25 1
    25    18    26 1
    26    19    21 1
    27    20    56 1
    28    21    24 ar
    29    22    23 2
    30    23    26 1
    31    24    25 1
    32    28    56 1
    33     1    29 1
    34     1    30 1
    35     1    31 1
    36     2    32 1
    37     2    33 1
    38     2    34 1
    39    57    35 1
    40    57    36 1
    41    57    37 1
    42     7    38 1
    43     8    39 1
    44     9    40 1
    45    10    41 1
    46    10    42 1
    47    11    43 1
    48    11    44 1
    49    12    45 1
    50    12    46 1
    51    13    47 1
    52    13    48 1
    53    14    49 1
    54    14    50 1
    55    15    51 1
    56    15    52 1
    57    16    53 1
    58    16    54 1
    59    18    55 1
@<TRIPOS>SUBSTRUCTURE
     1 5FO         1 TEMP              0 ****  ****    0 ROOT
