@<TRIPOS>MOLECULE
molecule
   76    80     1     0     0
SMALL
bcc


@<TRIPOS>ATOM
      1 C26          0.0000     0.0000     0.0000 c3         1 5FR      -0.100400
      2 C17          1.5060     0.0000     0.0000 cc         1 5FR       0.422900
      3 C12          2.3660     0.0000     1.1790 ca         1 5FR      -0.421200
      4 C13          2.1440     0.0000     2.5560 ca         1 5FR       0.544200
      5 C11          3.6940    -0.0010     0.6970 ca         1 5FR       0.047800
      6 C10          4.7330    -0.0010     1.6240 ca         1 5FR      -0.361300
      7 C9           4.4220    -0.0010     2.9740 ca         1 5FR       0.735200
      8 C61          6.8790     1.0970    -2.1320 ca         1 5FR       0.049400
      9 C68          5.8110     1.0300    -1.2570 ca         1 5FR      -0.126000
     10 C62          6.8510     0.3810    -3.3160 ca         1 5FR      -0.131000
     11 C63          5.7580    -0.4060    -3.6240 ca         1 5FR      -0.101300
     12 C69          5.7300    -1.1850    -4.9150 c3         1 5FR      -0.014100
     13 C70          6.3420    -2.5690    -4.6880 c3         1 5FR      -0.158400
     14 C71          6.3140    -3.3480    -5.9780 c          1 5FR       0.474100
     15 O73          5.8530    -2.8450    -6.9800 o          1 5FR      -0.388100
     16 N72          6.8050    -4.6030    -6.0190 nz         1 5FR      -0.686400
     17 C66          4.6890    -0.4810    -2.7520 ca         1 5FR      -0.123000
     18 C67          4.7120     0.2390    -1.5650 ca         1 5FR       0.078800
     19 N15          3.6190    -0.0010    -0.6700 na         1 5FR       0.122800
     20 N16          2.2750    -0.0070    -1.0540 nd         1 5FR      -0.523100
     21 N14          3.1600     0.0020     3.3910 nb         1 5FR      -0.763000
     22 N8           5.4510    -0.0010     3.9110 nu         1 5FR      -0.747300
     23 C57          5.1600     0.1320     5.2660 ca         1 5FR       0.146600
     24 C56          3.9870     0.7660     5.6660 ca         1 5FR      -0.118000
     25 C55          3.6940     0.9000     7.0040 ca         1 5FR      -0.121000
     26 C52          6.0410    -0.3750     6.2230 ca         1 5FR       0.090100
     27 O53          7.1840    -0.9980     5.8310 os         1 5FR      -0.346900
     28 C54          8.0400    -1.4930     6.8630 c3         1 5FR       0.128700
     29 C51          5.7520    -0.2430     7.5660 ca         1 5FR      -0.139000
     30 C50          4.5760     0.3990     7.9660 ca         1 5FR      -0.131600
     31 C41          4.2640     0.5430     9.4010 c          1 5FR       0.673700
     32 O40          5.0310     0.1070    10.2370 o          1 5FR      -0.614100
     33 N42          3.1270     1.1580     9.7840 ns         1 5FR      -0.579900
     34 C43          2.8180     1.3010    11.2090 c3         1 5FR       0.173700
     35 C44          1.3030     1.4310    11.3920 c3         1 5FR      -0.155900
     36 C49          0.9900     1.6410    12.8760 c3         1 5FR       0.180800
     37 N47          1.6640     2.8550    13.3530 n3         1 5FR      -0.725600
     38 C48          1.2760     3.1640    14.7360 c3         1 5FR       0.150100
     39 C46          3.1230     2.7340    13.2300 c3         1 5FR       0.180800
     40 C45          3.5000     2.5570    11.7580 c3         1 5FR      -0.155900
     41 H126        -0.3610     0.8660     0.5410 hc         1 5FR       0.062033
     42 H226        -0.3610     0.0360    -1.0210 hc         1 5FR       0.062033
     43 H326        -0.3610    -0.9020     0.4800 hc         1 5FR       0.062033
     44 H13          1.1310     0.0020     2.9400 h4         1 5FR       0.034100
     45 H10          5.7650    -0.0030     1.2950 ha         1 5FR       0.140000
     46 H68          5.8320     1.5940    -0.3320 ha         1 5FR       0.171000
     47 H62          7.6820     0.4460    -4.0070 ha         1 5FR       0.144000
     48 H169         6.3020    -0.6560    -5.6680 hc         1 5FR       0.078200
     49 H269         4.7060    -1.2930    -5.2500 hc         1 5FR       0.078200
     50 H170         7.3660    -2.4610    -4.3530 hc         1 5FR       0.098200
     51 H270         5.7700    -3.0980    -3.9350 hc         1 5FR       0.098200
     52 H172         6.7000    -4.9720    -6.9430 hn         1 5FR       0.478467
     53 H272         7.7750    -4.5900    -5.7730 hn         1 5FR       0.478467
     54 H66          3.8330    -1.0990    -2.9950 ha         1 5FR       0.156000
     55 HN8          6.4030    -0.0640     3.6080 hn         1 5FR       0.468800
     56 H56          3.3030     1.1550     4.9210 ha         1 5FR       0.175000
     57 H55          2.7820     1.3960     7.3120 ha         1 5FR       0.132000
     58 H154         8.9040    -1.9700     6.4170 h1         1 5FR       0.047367
     59 H254         7.5010    -2.2140     7.4650 h1         1 5FR       0.047367
     60 H354         8.3650    -0.6700     7.4890 h1         1 5FR       0.047367
     61 H51          6.4360    -0.6350     8.3090 ha         1 5FR       0.166000
     62 HN42         2.4790     1.4850     9.0960 hn         1 5FR       0.322500
     63 H43          3.1730     0.4320    11.7510 h1         1 5FR       0.057700
     64 H144         1.7840     0.5270    11.7450 hc         1 5FR       0.070950
     65 H244         0.5700     1.0630    10.6850 hc         1 5FR       0.070950
     66 H149        -0.0800     1.7490    13.0060 h1         1 5FR       0.033950
     67 H249         1.3430     0.7870    13.4420 h1         1 5FR       0.033950
     68 H148         1.6180     2.3730    15.3920 h1         1 5FR       0.033033
     69 H248         1.7270     4.1020    15.0360 h1         1 5FR       0.033033
     70 H348         0.1980     3.2450    14.7990 h1         1 5FR       0.033033
     71 H146         3.5920     3.6310    13.6160 h1         1 5FR       0.033950
     72 H246         3.4600     1.8730    13.7940 h1         1 5FR       0.033950
     73 H145         4.5750     2.4500    11.6720 hc         1 5FR       0.070950
     74 H245         3.1700     3.4220    11.1950 hc         1 5FR       0.070950
     75 H723         6.3050    -5.1780    -5.3700 hn         1 5FR       0.478467
     76 Cl           8.2530     2.0850    -1.7480 cl         1 5FR      -0.069400
@<TRIPOS>BOND
     1     1    41 1
     2     1    42 1
     3     1    43 1
     4     2     1 1
     5     2     3 1
     6     3     4 ar
     7     4    21 ar
     8     4    44 1
     9     5     3 ar
    10     5     6 ar
    11     6     7 ar
    12     6    45 1
    13     7    21 ar
    14     7    22 1
    15    76     8 1
    16     8     9 ar
    17     9    18 ar
    18     9    46 1
    19    10    11 ar
    20    10     8 ar
    21    10    47 1
    22    11    17 ar
    23    12    11 1
    24    12    48 1
    25    12    49 1
    26    13    12 1
    27    13    14 1
    28    13    50 1
    29    13    51 1
    30    14    15 2
    31    14    16 1
    32    16    52 1
    33    16    53 1
    34    17    18 ar
    35    17    54 1
    36    18    19 1
    37    19     5 1
    38    20    19 1
    39    20     2 2
    40    22    23 1
    41    22    55 1
    42    23    26 ar
    43    24    25 ar
    44    24    23 ar
    45    24    56 1
    46    25    30 ar
    47    25    57 1
    48    26    29 ar
    49    26    27 1
    50    27    28 1
    51    28    58 1
    52    28    59 1
    53    28    60 1
    54    29    61 1
    55    30    31 1
    56    30    29 ar
    57    31    32 2
    58    33    34 1
    59    33    31 1
    60    33    62 1
    61    34    35 1
    62    34    63 1
    63    35    36 1
    64    35    64 1
    65    35    65 1
    66    36    66 1
    67    36    67 1
    68    37    38 1
    69    37    36 1
    70    38    68 1
    71    38    69 1
    72    38    70 1
    73    39    37 1
    74    39    71 1
    75    39    72 1
    76    40    39 1
    77    40    34 1
    78    40    73 1
    79    40    74 1
    80    75    16 1
@<TRIPOS>SUBSTRUCTURE
     1 5FR         1 TEMP              0 ****  ****    0 ROOT
