@<TRIPOS>MOLECULE
5FR
   76    80     1     0     0
SMALL
bcc


@<TRIPOS>ATOM
      1 C26          0.0000     0.0000     0.0000 c3         1 5FR       0.005600
      2 C17          1.5060     0.0000     0.0000 cc         1 5FR       0.456900
      3 C12          2.3660     0.0000     1.1790 ca         1 5FR      -0.437200
      4 C13          2.1440     0.0000     2.5560 ca         1 5FR       0.545200
      5 C11          3.6940    -0.0010     0.6970 ca         1 5FR      -0.102200
      6 C10          4.7330    -0.0010     1.6240 ca         1 5FR      -0.344300
      7 C9           4.4220    -0.0010     2.9740 ca         1 5FR       0.538200
      8 C61          6.8790     1.0970    -2.1320 ca         1 5FR      -0.021600
      9 C68          5.8110     1.0300    -1.2570 ca         1 5FR      -0.095000
     10 C62          6.8510     0.3810    -3.3160 ca         1 5FR      -0.103000
     11 C63          5.7580    -0.4060    -3.6240 ca         1 5FR      -0.111300
     12 C69          5.7300    -1.1850    -4.9150 c3         1 5FR       0.052900
     13 C70          6.3420    -2.5690    -4.6880 c3         1 5FR      -0.090400
     14 C71          6.3140    -3.3480    -5.9780 c          1 5FR       0.305100
     15 O73          5.8530    -2.8450    -6.9800 o          1 5FR      -0.387100
     16 N72          6.8050    -4.6030    -6.0190 nz         1 5FR       0.195600
     17 C66          4.6890    -0.4810    -2.7520 ca         1 5FR      -0.097000
     18 C67          4.7120     0.2390    -1.5650 ca         1 5FR      -0.076200
     19 N15          3.6190    -0.0010    -0.6700 na         1 5FR       0.547800
     20 N16          2.2750    -0.0070    -1.0540 nd         1 5FR      -0.659100
     21 N14          3.1600     0.0020     3.3910 nb         1 5FR      -0.656000
     22 N8           5.4510    -0.0010     3.9110 nu         1 5FR      -0.271300
     23 C57          5.1600     0.1320     5.2660 ca         1 5FR      -0.023400
     24 C56          3.9870     0.7660     5.6660 ca         1 5FR      -0.105000
     25 C55          3.6940     0.9000     7.0040 ca         1 5FR      -0.098000
     26 C52          6.0410    -0.3750     6.2230 ca         1 5FR       0.102100
     27 O53          7.1840    -0.9980     5.8310 os         1 5FR      -0.327900
     28 C54          8.0400    -1.4930     6.8630 c3         1 5FR       0.246700
     29 C51          5.7520    -0.2430     7.5660 ca         1 5FR      -0.121000
     30 C50          4.5760     0.3990     7.9660 ca         1 5FR      -0.132600
     31 C41          4.2640     0.5430     9.4010 c          1 5FR       0.597700
     32 O40          5.0310     0.1070    10.2370 o          1 5FR      -0.656100
     33 N42          3.1270     1.1580     9.7840 ns         1 5FR      -0.198900
     34 C43          2.8180     1.3010    11.2090 c3         1 5FR       0.095700
     35 C44          1.3030     1.4310    11.3920 c3         1 5FR      -0.125900
     36 C49          0.9900     1.6410    12.8760 c3         1 5FR       0.184800
     37 N47          1.6640     2.8550    13.3530 n3         1 5FR      -0.541600
     38 C48          1.2760     3.1640    14.7360 c3         1 5FR       0.186100
     39 C46          3.1230     2.7340    13.2300 c3         1 5FR       0.184800
     40 C45          3.5000     2.5570    11.7580 c3         1 5FR      -0.125900
     41 H126        -0.3610     0.8660     0.5410 hc         1 5FR       0.020033
     42 H226        -0.3610     0.0360    -1.0210 hc         1 5FR       0.020033
     43 H326        -0.3610    -0.9020     0.4800 hc         1 5FR       0.020033
     44 H13          1.1310     0.0020     2.9400 h4         1 5FR      -0.017900
     45 H10          5.7650    -0.0030     1.2950 ha         1 5FR       0.125000
     46 H68          5.8320     1.5940    -0.3320 ha         1 5FR       0.139000
     47 H62          7.6820     0.4460    -4.0070 ha         1 5FR       0.116000
     48 H169         6.3020    -0.6560    -5.6680 hc         1 5FR       0.042200
     49 H269         4.7060    -1.2930    -5.2500 hc         1 5FR       0.042200
     50 H170         7.3660    -2.4610    -4.3530 hc         1 5FR       0.060200
     51 H270         5.7700    -3.0980    -3.9350 hc         1 5FR       0.060200
     52 H172         6.7000    -4.9720    -6.9430 hn         1 5FR       0.247800
     53 H272         7.7750    -4.5900    -5.7730 hn         1 5FR       0.247800
     54 H66          3.8330    -1.0990    -2.9950 ha         1 5FR       0.129000
     55 HN8          6.4030    -0.0640     3.6080 hn         1 5FR       0.293800
     56 H56          3.3030     1.1550     4.9210 ha         1 5FR       0.152000
     57 H55          2.7820     1.3960     7.3120 ha         1 5FR       0.107000
     58 H154         8.9040    -1.9700     6.4170 h1         1 5FR       0.002700
     59 H254         7.5010    -2.2140     7.4650 h1         1 5FR       0.002700
     60 H354         8.3650    -0.6700     7.4890 h1         1 5FR       0.002700
     61 H51          6.4360    -0.6350     8.3090 ha         1 5FR       0.146000
     62 HN42         2.4790     1.4850     9.0960 hn         1 5FR       0.188500
     63 H43          3.1730     0.4320    11.7510 h1         1 5FR       0.038700
     64 H144         1.7840     0.5270    11.7450 hc         1 5FR       0.045700
     65 H244         0.5700     1.0630    10.6850 hc         1 5FR       0.045700
     66 H149        -0.0800     1.7490    13.0060 h1         1 5FR       0.006700
     67 H249         1.3430     0.7870    13.4420 h1         1 5FR       0.006700
     68 H148         1.6180     2.3730    15.3920 h1         1 5FR       0.000700
     69 H248         1.7270     4.1020    15.0360 h1         1 5FR       0.000700
     70 H348         0.1980     3.2450    14.7990 h1         1 5FR       0.000700
     71 H146         3.5920     3.6310    13.6160 h1         1 5FR       0.006700
     72 H246         3.4600     1.8730    13.7940 h1         1 5FR       0.006700
     73 H145         4.5750     2.4500    11.6720 hc         1 5FR       0.045700
     74 H245         3.1700     3.4220    11.1950 hc         1 5FR       0.045700
     75 H723         6.3050    -5.1780    -5.3700 hn         1 5FR       0.247800
     76 Cl           8.2530     2.0850    -1.7480 cl         1 5FR       0.017600
@<TRIPOS>BOND
     1     1     2 1   
     2     1    41 1   
     3     1    42 1   
     4     1    43 1   
     5     2     3 1   
     6     2    20 2   
     7     3     4 ar  
     8     3     5 ar  
     9     4    21 ar  
    10     4    44 1   
    11     5     6 ar  
    12     5    19 1   
    13     6     7 ar  
    14     6    45 1   
    15     7    21 ar  
    16     7    22 1   
    17     8     9 ar  
    18     8    10 ar  
    19     8    76 1   
    20     9    18 ar  
    21     9    46 1   
    22    10    11 ar  
    23    10    47 1   
    24    11    12 1   
    25    11    17 ar  
    26    12    13 1   
    27    12    48 1   
    28    12    49 1   
    29    13    14 1   
    30    13    50 1   
    31    13    51 1   
    32    14    15 2   
    33    14    16 1   
    34    16    52 1   
    35    16    53 1   
    36    16    75 1   
    37    17    18 ar  
    38    17    54 1   
    39    18    19 1   
    40    19    20 1   
    41    22    23 1   
    42    22    55 1   
    43    23    24 ar  
    44    23    26 ar  
    45    24    25 ar  
    46    24    56 1   
    47    25    30 ar  
    48    25    57 1   
    49    26    27 1   
    50    26    29 ar  
    51    27    28 1   
    52    28    58 1   
    53    28    59 1   
    54    28    60 1   
    55    29    30 ar  
    56    29    61 1   
    57    30    31 1   
    58    31    32 2   
    59    31    33 1   
    60    33    34 1   
    61    33    62 1   
    62    34    35 1   
    63    34    40 1   
    64    34    63 1   
    65    35    36 1   
    66    35    64 1   
    67    35    65 1   
    68    36    37 1   
    69    36    66 1   
    70    36    67 1   
    71    37    38 1   
    72    37    39 1   
    73    38    68 1   
    74    38    69 1   
    75    38    70 1   
    76    39    40 1   
    77    39    71 1   
    78    39    72 1   
    79    40    73 1   
    80    40    74 1   
@<TRIPOS>SUBSTRUCTURE
     1 5FR         1 TEMP              0 ****  ****    0 ROOT
