@<TRIPOS>MOLECULE
molecule
   39    41     1     0     0
SMALL
bcc


@<TRIPOS>ATOM
      1 O01          0.0000     0.0000     0.0000 oh         1 5FS      -0.521600
      2 C02          5.6110    -0.0000     0.0010 ce         1 5FS       0.040800
      3 C03          6.3670    -1.2090    -0.3160 ce         1 5FS       0.040800
      4 C04          7.7070    -1.1290    -0.2900 cf         1 5FS      -0.267100
      5 C05          4.1290     0.0000     0.0000 ca         1 5FS      -0.085300
      6 C06          5.6800    -2.4780    -0.6560 ca         1 5FS      -0.085300
      7 C07          3.4290     0.0000     1.2080 ca         1 5FS      -0.038300
      8 C08          2.0510     0.0000     1.2040 ca         1 5FS      -0.155000
      9 C09          1.3580    -0.0000     0.0000 ca         1 5FS       0.123100
     10 C10          2.0510    -0.0000    -1.2030 ca         1 5FS      -0.158500
     11 C12          5.6380    -2.9170    -1.9790 ca         1 5FS      -0.038300
     12 C13          4.9990    -4.0980    -2.2920 ca         1 5FS      -0.155000
     13 C14          4.3960    -4.8490    -1.2910 ca         1 5FS       0.123100
     14 C15          4.4370    -4.4140     0.0270 ca         1 5FS      -0.158500
     15 C16          5.0800    -3.2370     0.3460 ca         1 5FS      -0.085500
     16 C18          6.2900    -2.1020    -3.0660 c3         1 5FS      -0.051800
     17 C01          6.3060     1.1080     0.2980 cf         1 5FS      -0.267100
     18 S01          7.9990     0.5690     0.1620 sy         1 5FS       1.172800
     19 C11          3.4300     0.0050    -1.2060 ca         1 5FS      -0.085500
     20 O02          3.7620    -6.0100    -1.6030 oh         1 5FS      -0.521600
     21 O03          8.5620     0.5790     1.4670 o          1 5FS      -0.599800
     22 O04          8.5720     1.2240    -0.9620 o          1 5FS      -0.599800
     23 H1          -0.3150    -0.8890     0.0090 ho         1 5FS       0.423500
     24 H2           8.2880    -1.9190     0.1700 h4         1 5FS       0.206000
     25 H3           1.5070     0.0000     2.1410 ha         1 5FS       0.147000
     26 H4           1.5080     0.0040    -2.1400 ha         1 5FS       0.145500
     27 H5           4.9650    -4.4390    -3.3190 ha         1 5FS       0.147000
     28 H6           3.9680    -5.0030     0.8060 ha         1 5FS       0.145500
     29 H7           5.1110    -2.8980     1.3750 ha         1 5FS       0.138500
     30 H8           4.6690     0.9580     2.6500 hc         1 5FS       0.050533
     31 H9           3.4880    -0.1710     3.3290 hc         1 5FS       0.050533
     32 H10          4.9260    -0.7870     2.5020 hc         1 5FS       0.050533
     33 H11          5.9790    -2.4760    -4.0340 hc         1 5FS       0.050533
     34 H12          5.9940    -1.0650    -2.9680 hc         1 5FS       0.050533
     35 H13          7.3670    -2.1800    -2.9790 hc         1 5FS       0.050533
     36 H14          6.0070     2.0630    -0.1170 h4         1 5FS       0.206000
     37 H15          3.9700     0.0050    -2.1460 ha         1 5FS       0.138500
     38 H16          4.3710    -6.7270    -1.5460 ho         1 5FS       0.423500
     39 C17          4.1810     0.0000     2.5140 c3         1 5FS      -0.051800
@<TRIPOS>BOND
     1     1     9 1
     2     9    10 ar
     3     9     8 ar
     4    10    19 ar
     5     8     7 ar
     6    19     5 ar
     7     7     5 ar
     8     7    39 1
     9     5     2 1
    10     2    17 2
    11     2     3 1
    12    20    13 1
    13    13    14 ar
    14    13    12 ar
    15    14    15 ar
    16    17    18 1
    17    12    11 ar
    18    15     6 ar
    19    11     6 ar
    20    11    16 1
    21     6     3 1
    22     3     4 2
    23     4    18 1
    24    21    18 2
    25    18    22 2
    26     1    23 1
    27     4    24 1
    28     8    25 1
    29    10    26 1
    30    12    27 1
    31    14    28 1
    32    15    29 1
    33    39    30 1
    34    39    31 1
    35    39    32 1
    36    16    33 1
    37    16    34 1
    38    16    35 1
    39    17    36 1
    40    19    37 1
    41    20    38 1
@<TRIPOS>SUBSTRUCTURE
     1 5FS         1 TEMP              0 ****  ****    0 ROOT
