@<TRIPOS>MOLECULE
molecule
   58    62     1     0     0
SMALL
bcc


@<TRIPOS>ATOM
      1 C25          0.0000     0.0000     0.0000 c3         1 5FT      -0.037800
      2 C06          1.5070     0.0000     0.0000 ca         1 5FT      -0.101300
      3 C05          2.1950     0.0000     1.1930 ca         1 5FT      -0.070000
      4 C01          2.2000    -0.0040    -1.2040 ca         1 5FT       0.121100
      5 O01          1.5170    -0.0090    -2.3780 oh         1 5FT      -0.510100
      6 C02          3.5890    -0.0040    -1.2100 ca         1 5FT      -0.195000
      7 C03          4.2860     0.0000    -0.0210 ca         1 5FT      -0.104000
      8 C04          3.5930     0.0000     1.1920 ca         1 5FT      -0.070800
      9 C07          4.3340     0.0050     2.4660 ce         1 5FT      -0.018400
     10 C08          4.2970     1.0170     3.3470 cf         1 5FT      -0.094400
     11 C10          3.5110     2.2480     3.1480 ca         1 5FT      -0.057800
     12 C11          2.6310     2.6860     4.1420 ca         1 5FT      -0.084000
     13 C12          1.8990     3.8370     3.9510 ca         1 5FT      -0.090300
     14 C26          0.9490     4.3100     5.0210 c3         1 5FT      -0.043800
     15 C13          2.0340     4.5630     2.7750 ca         1 5FT       0.120100
     16 O02          1.3110     5.6980     2.5920 oh         1 5FT      -0.511100
     17 C14          2.9080     4.1320     1.7850 ca         1 5FT      -0.188000
     18 C15          3.6480     2.9850     1.9680 ca         1 5FT      -0.087000
     19 C09          5.1690     0.7470     4.5910 c3         1 5FT       0.055800
     20 S02          6.5710    -0.1500     3.7590 s4         1 5FT       0.250600
     21 O06          7.2490    -0.9550     4.7140 o          1 5FT      -0.496200
     22 C16          5.2330    -1.1560     2.9410 c3         1 5FT       0.029800
     23 C17          4.4560    -1.6370     4.2160 c3         1 5FT      -0.048400
     24 C18          4.4190    -0.4760     5.2210 c3         1 5FT      -0.232900
     25 S01          2.6970    -0.0230     5.5680 s6         1 5FT       1.465500
     26 O04          2.6360     0.9380     6.6140 o          1 5FT      -0.624800
     27 O05          1.9780     0.1650     4.3580 o          1 5FT      -0.624800
     28 O03          2.0890    -1.2780     6.1760 os         1 5FT      -0.453800
     29 C19          2.4690    -1.5110     7.4600 ca         1 5FT       0.084100
     30 C20          1.7280    -0.9870     8.5100 ca         1 5FT      -0.117500
     31 C21          2.1180    -1.2240     9.8140 ca         1 5FT      -0.113500
     32 C22          3.2430    -1.9840    10.0740 ca         1 5FT      -0.115000
     33 C23          3.9820    -2.5080     9.0290 ca         1 5FT      -0.113500
     34 C24          3.5950    -2.2780     7.7230 ca         1 5FT      -0.117500
     35 H1          -0.3610    -0.0090     1.0210 hc         1 5FT       0.047033
     36 H2          -0.3610     0.8890    -0.5030 hc         1 5FT       0.047033
     37 H3          -0.3610    -0.8800    -0.5180 hc         1 5FT       0.047033
     38 H4           1.6530    -0.0000     2.1320 ha         1 5FT       0.180000
     39 H5           1.8490    -0.6970    -2.9310 ho         1 5FT       0.418000
     40 H6           4.1260    -0.0060    -2.1510 ha         1 5FT       0.133000
     41 H7           5.3690     0.0000    -0.0270 ha         1 5FT       0.125000
     42 H8           2.5830     2.1650     5.0900 ha         1 5FT       0.133000
     43 H9           0.3840     3.4680     5.4010 hc         1 5FT       0.048700
     44 H10          0.2680     5.0410     4.6020 hc         1 5FT       0.048700
     45 H11          1.5110     4.7620     5.8290 hc         1 5FT       0.048700
     46 H12          1.8850     6.3960     2.3210 ho         1 5FT       0.419000
     47 H13          3.0110     4.7020     0.8690 ha         1 5FT       0.135000
     48 H14          4.3290     2.6490     1.1950 ha         1 5FT       0.136000
     49 H15          5.4140     1.5840     5.2340 h1         1 5FT       0.128700
     50 H17          5.5330    -1.9000     2.2130 h1         1 5FT       0.119700
     51 H18          3.4460    -1.9180     3.9440 hc         1 5FT       0.069200
     52 H19          4.9660    -2.4850     4.6560 hc         1 5FT       0.069200
     53 H20          4.9110    -0.7720     6.1400 h1         1 5FT       0.121700
     54 H21          0.8470    -0.3910     8.3070 ha         1 5FT       0.150000
     55 H22          1.5400    -0.8150    10.6340 ha         1 5FT       0.142500
     56 H23          3.5470    -2.1670    11.0970 ha         1 5FT       0.138000
     57 H24          4.8620    -3.1050     9.2350 ha         1 5FT       0.142500
     58 H25          4.1750    -2.6880     6.9050 ha         1 5FT       0.150000
@<TRIPOS>BOND
     1    33    32 ar  
     2    33    34 ar  
     3    32    31 ar  
     4    34    29 ar  
     5    26    25 2   
     6    31    30 ar  
     7    29    30 ar  
     8    29    28 1   
     9    28    25 1   
    10    25    27 2   
    11    25    24 1   
    12    24    23 1   
    13    24    19 1   
    14    23    22 1   
    15    21    20 2   
    16    19    20 1   
    17    19    10 1   
    18    20    22 1   
    19    10    11 1   
    20    10     9 2   
    21    22     9 1   
    22    11    18 ar  
    23    11    12 ar  
    24    18    17 ar  
    25    12    13 ar  
    26     9     8 1   
    27    17    15 ar  
    28    13    15 ar  
    29    13    14 1   
    30    15    16 1   
    31     7     8 ar  
    32     7     6 ar  
    33     8     3 ar  
    34     6     4 ar  
    35     3     2 ar  
    36     4     2 ar  
    37     4     5 1   
    38     2     1 1   
    39     1    35 1   
    40     1    36 1   
    41     1    37 1   
    42     3    38 1   
    43     5    39 1   
    44     6    40 1   
    45     7    41 1   
    46    12    42 1   
    47    14    43 1   
    48    14    44 1   
    49    14    45 1   
    50    16    46 1   
    51    17    47 1   
    52    18    48 1   
    53    19    49 1   
    54    22    50 1   
    55    23    51 1   
    56    23    52 1   
    57    24    53 1   
    58    30    54 1   
    59    31    55 1   
    60    32    56 1   
    61    33    57 1   
    62    34    58 1   
@<TRIPOS>SUBSTRUCTURE
     1 5FT         1 TEMP              0 ****  ****    0 ROOT
