@<TRIPOS>MOLECULE
molecule
   32    32     1     0     0
SMALL
bcc


@<TRIPOS>ATOM
      1 CAI          0.0000     0.0000     0.0000 c3         1 5FW      -0.090100
      2 CAG          1.5290     0.0000     0.0000 c3         1 5FW       0.160500
      3 CAJ          2.0410     0.0000     1.4420 c3         1 5FW      -0.090100
      4 NAD          2.0180    -1.2000    -0.6910 n7         1 5FW      -0.808200
      5 CAF          3.3660    -0.9830    -1.2350 c3         1 5FW       0.158800
      6 CAE          3.8400    -2.2530    -1.9480 c3         1 5FW       0.197400
      7 OAA          3.8700    -3.3360    -1.0160 oh         1 5FW      -0.585800
      8 CAH          5.2220    -2.0290    -2.5050 ca         1 5FW      -0.115300
      9 CAK          5.3790    -1.6300    -3.8190 ca         1 5FW      -0.151000
     10 CAL          6.3290    -2.2190    -1.6990 ca         1 5FW      -0.094000
     11 CAN          7.6000    -2.0150    -2.2070 ca         1 5FW      -0.157000
     12 CAO          7.7640    -1.6210    -3.5230 ca         1 5FW       0.095100
     13 OAC          9.0140    -1.4190    -4.0240 oh         1 5FW      -0.511100
     14 CAM          6.6490    -1.4250    -4.3330 ca         1 5FW       0.088100
     15 OAB          6.8060    -1.0310    -5.6260 oh         1 5FW      -0.510100
     16 HAI1        -0.3610    -0.9340     0.4120 hc         1 5FW       0.039700
     17 HAI2        -0.3610     0.1100    -1.0150 hc         1 5FW       0.039700
     18 HAI3        -0.3610     0.8240     0.6030 hc         1 5FW       0.039700
     19 HAG          1.8910     0.8840    -0.5110 h1         1 5FW       0.021700
     20 HAJ1         3.0710     0.3340     1.4600 hc         1 5FW       0.039700
     21 HAJ2         1.9790    -1.0030     1.8470 hc         1 5FW       0.039700
     22 HAJ3         1.4340     0.6690     2.0400 hc         1 5FW       0.039700
     23 HAD          1.3920    -1.4350    -1.4360 hn         1 5FW       0.346800
     24 HAF1         3.3420    -0.1610    -1.9400 h1         1 5FW       0.044700
     25 HAF2         4.0470    -0.7470    -0.4270 h1         1 5FW       0.044700
     26 HAE          3.1580    -2.4900    -2.7560 h1         1 5FW       0.034700
     27 HAA          3.5360    -4.1150    -1.4290 ho         1 5FW       0.403000
     28 HAK          4.5090    -1.4780    -4.4460 ha         1 5FW       0.138000
     29 HAL          6.2010    -2.5280    -0.6690 ha         1 5FW       0.154000
     30 HAN          8.4660    -2.1650    -1.5730 ha         1 5FW       0.144000
     31 HAC          9.4330    -2.2520    -4.1650 ho         1 5FW       0.422000
     32 HAB          6.5380    -0.1320    -5.7160 ho         1 5FW       0.421000
@<TRIPOS>BOND
     1     1     2 1
     2     2     3 1
     3     2     4 1
     4     4     5 1
     5     5     6 1
     6     6     7 1
     7     6     8 1
     8     8     9 ar
     9     8    10 ar
    10     9    14 ar
    11    10    11 ar
    12    11    12 ar
    13    12    13 1
    14    12    14 ar
    15    14    15 1
    16     1    16 1
    17     1    17 1
    18     1    18 1
    19     2    19 1
    20     3    20 1
    21     3    21 1
    22     3    22 1
    23     4    23 1
    24     5    24 1
    25     5    25 1
    26     6    26 1
    27     7    27 1
    28     9    28 1
    29    10    29 1
    30    11    30 1
    31    13    31 1
    32    15    32 1
@<TRIPOS>SUBSTRUCTURE
     1 5FW         1 TEMP              0 ****  ****    0 ROOT
