@<TRIPOS>MOLECULE
5FX
   19    18     1     0     0
SMALL
bcc


@<TRIPOS>ATOM
      1 C1         -0.1280    0.0370   -0.1880 c3        1 5FX      0.036400
      2 O1          1.1590   -0.4450   -0.5020 oh        1 5FX     -0.583800
      3 C2         -0.4510   -0.0830    1.2800 c         1 5FX      0.511100
      4 O2          0.4330   -0.1990    2.1320 o         1 5FX     -0.506100
      5 C3         -1.9200   -0.0520    1.6570 c3        1 5FX      0.057100
      6 O3         -2.1150   -0.4390    2.9990 oh        1 5FX     -0.578800
      7 C4         -2.5180    1.3420    1.3970 c3        1 5FX      0.081100
      8 O4         -1.8630    2.2380    2.2790 oh        1 5FX     -0.598800
      9 C5         -4.0350    1.3080    1.6650 c3        1 5FX      0.121900
     10 F          -4.5780    2.5750    1.5670 f         1 5FX     -0.244300
     11 H11C       -0.2150    1.1190   -0.4850 h1        1 5FX      0.069700
     12 H12C       -0.8320   -0.5810   -0.8070 h1        1 5FX      0.069700
     13 H1          1.7620   -0.1610    0.2010 ho        1 5FX      0.422000
     14 H3         -2.4820   -0.8180    1.0500 h1        1 5FX      0.097700
     15 HA         -1.5250    0.1040    3.5440 ho        1 5FX      0.434000
     16 H4         -2.3240    1.6560    0.3340 h1        1 5FX      0.051700
     17 HB         -2.3720    3.0600    2.2810 ho        1 5FX      0.425000
     18 H51C       -4.5320    0.6370    0.9140 h1        1 5FX      0.067700
     19 H52C       -4.2160    0.9090    2.7010 h1        1 5FX      0.067700
@<TRIPOS>BOND
     1    1    2 1   
     2    1    3 1   
     3    1   11 1   
     4    1   12 1   
     5    2   13 1   
     6    3    4 2   
     7    3    5 1   
     8    5    6 1   
     9    5    7 1   
    10    5   14 1   
    11    6   15 1   
    12    7    8 1   
    13    7    9 1   
    14    7   16 1   
    15    8   17 1   
    16    9   10 1   
    17    9   18 1   
    18    9   19 1   
@<TRIPOS>SUBSTRUCTURE
     1 5FX         1 TEMP              0 ****  ****    0 ROOT
