@<TRIPOS>MOLECULE
molecule
   19    18     1     0     0
SMALL
bcc


@<TRIPOS>ATOM
      1 C1           0.0000     0.0000     0.0000 c3         1 5FX       0.042400
      2 O1           1.4280     0.0000     0.0000 oh         1 5FX      -0.577800
      3 C2          -0.5030     0.0000     1.4200 c          1 5FX       0.526100
      4 O2           0.2810    -0.0010     2.3390 o          1 5FX      -0.439100
      5 C3          -1.9860     0.0000     1.6940 c3         1 5FX       0.061100
      6 O3          -2.2170    -0.3490     3.0610 oh         1 5FX      -0.562800
      7 C4          -2.5540     1.3930     1.4210 c3         1 5FX       0.128100
      8 O4          -1.8330     2.3620     2.1860 oh         1 5FX      -0.574800
      9 C5          -4.0320     1.4280     1.8170 c3         1 5FX       0.135900
     10 F           -4.5810     2.6640     1.4620 f          1 5FX      -0.250300
     11 H11C        -0.3610    -0.8840    -0.5110 h1         1 5FX       0.037200
     12 H12C        -0.3610     0.8840    -0.5110 h1         1 5FX       0.037200
     13 H1           1.7430    -0.1340    -0.8790 ho         1 5FX       0.405000
     14 H3          -2.4720    -0.7220     1.0500 h1         1 5FX       0.046700
     15 HA          -2.2860    -1.2860     3.1390 ho         1 5FX       0.406000
     16 H4          -2.4580     1.6220     0.3660 h1         1 5FX       0.042700
     17 HB          -1.8880     3.2020     1.7620 ho         1 5FX       0.411000
     18 H51C        -4.5620     0.6360     1.3030 h1         1 5FX       0.061700
     19 H52C        -4.1220     1.2870     2.8880 h1         1 5FX       0.061700
@<TRIPOS>BOND
     1     1     2 1
     2     1     3 1
     3     3     4 2
     4     3     5 1
     5     5     6 1
     6     5     7 1
     7     7     8 1
     8     7     9 1
     9     9    10 1
    10     1    11 1
    11     1    12 1
    12     2    13 1
    13     5    14 1
    14     6    15 1
    15     7    16 1
    16     8    17 1
    17     9    18 1
    18     9    19 1
@<TRIPOS>SUBSTRUCTURE
     1 5FX         1 TEMP              0 ****  ****    0 ROOT
