@<TRIPOS>MOLECULE
molecule
   59    63     1     0     0
SMALL
bcc


@<TRIPOS>ATOM
      1 C01          0.0000     0.0000     0.0000 c3         1 5FY      -0.050800
      2 C02          1.5070     0.0000     0.0000 ca         1 5FY      -0.059300
      3 C03          2.1970     0.0000     1.1930 ca         1 5FY      -0.163000
      4 C04          3.5860    -0.0000     1.1940 ca         1 5FY       0.113100
      5 O01          4.2630    -0.0000     2.3720 oh         1 5FY      -0.523100
      6 C05          4.2860     0.0000    -0.0060 ca         1 5FY      -0.160000
      7 C06          3.6050     0.0010    -1.2040 ca         1 5FY      -0.078000
      8 C07          2.2060    -0.0050    -1.2100 ca         1 5FY      -0.059800
      9 C08          1.4720    -0.0090    -2.4880 ce         1 5FY      -0.009400
     10 C09          1.4120     1.0440    -3.3180 cf         1 5FY      -0.108400
     11 C10          2.0730     2.3340    -3.0530 ca         1 5FY      -0.060800
     12 C11          3.2320     2.6850    -3.7510 ca         1 5FY      -0.085000
     13 C12          3.8460     3.8930    -3.5000 ca         1 5FY      -0.146000
     14 C13          3.3140     4.7610    -2.5550 ca         1 5FY       0.115100
     15 O02          3.9220     5.9510    -2.3110 oh         1 5FY      -0.524100
     16 C14          2.1620     4.4170    -1.8600 ca         1 5FY      -0.158000
     17 C15          1.5380     3.2150    -2.1080 ca         1 5FY      -0.045300
     18 C16          0.2840     2.8460    -1.3580 c3         1 5FY      -0.050800
     19 C17          0.5740     0.7520    -4.5800 c3         1 5FY       0.064800
     20 S01         -0.7340    -0.3190    -3.8040 s4         1 5FY       0.246600
     21 O03         -1.3290    -1.1380    -4.8020 o          1 5FY      -0.493200
     22 C18          0.6930    -1.2280    -3.0250 c3         1 5FY       0.028800
     23 C19          1.5160    -1.5670    -4.3150 c3         1 5FY      -0.051400
     24 C20          1.4450    -0.3600    -5.2600 c3         1 5FY      -0.233900
     25 S02          3.1160     0.2740    -5.5710 s6         1 5FY       1.468500
     26 O04          3.0600     1.4810    -6.3180 o          1 5FY      -0.625800
     27 O05          3.9120     0.1750    -4.3980 o          1 5FY      -0.625800
     28 O06          3.7320    -0.7330    -6.5300 os         1 5FY      -0.454800
     29 C21          3.2710    -0.6370    -7.8050 ca         1 5FY       0.074100
     30 C22          3.9110     0.1940    -8.7130 ca         1 5FY      -0.105000
     31 C23          3.4410     0.2920   -10.0090 ca         1 5FY      -0.139500
     32 C24          2.3310    -0.4400   -10.4020 ca         1 5FY       0.122100
     33 O07          1.8690    -0.3440   -11.6770 oh         1 5FY      -0.518100
     34 C25          1.6920    -1.2710    -9.4940 ca         1 5FY      -0.139500
     35 C26          2.1640    -1.3740    -8.2000 ca         1 5FY      -0.105000
     36 H1          -0.3610     0.2890    -0.9790 hc         1 5FY       0.043033
     37 H2          -0.3610     0.7040     0.7400 hc         1 5FY       0.043033
     38 H3          -0.3610    -0.9930     0.2390 hc         1 5FY       0.043033
     39 H4           1.6560    -0.0040     2.1310 ha         1 5FY       0.140000
     40 H5           4.3820    -0.8880     2.6660 ho         1 5FY       0.419000
     41 H6           5.3700     0.0020    -0.0000 ha         1 5FY       0.144000
     42 H7           4.1510    -0.0010    -2.1390 ha         1 5FY       0.175000
     43 H10          3.6480     2.0090    -4.4880 ha         1 5FY       0.137000
     44 H11          4.7440     4.1660    -4.0400 ha         1 5FY       0.145000
     45 H12          4.5270     5.8550    -1.5950 ho         1 5FY       0.420000
     46 H13          1.7490     5.0990    -1.1260 ha         1 5FY       0.141000
     47 H14          0.5410     2.5550    -0.3460 hc         1 5FY       0.044367
     48 H15         -0.3840     3.6980    -1.3300 hc         1 5FY       0.044367
     49 H16         -0.2060     2.0190    -1.8580 hc         1 5FY       0.044367
     50 H17          0.2510     1.5910    -5.1840 h1         1 5FY       0.133700
     51 H19          0.4660    -2.0330    -2.3360 h1         1 5FY       0.120700
     52 H20          1.0930    -2.4370    -4.8010 hc         1 5FY       0.071700
     53 H21          2.5480    -1.7630    -4.0490 hc         1 5FY       0.071700
     54 H22          0.9880    -0.6570    -6.1960 h1         1 5FY       0.120700
     55 H23          4.7780     0.7660    -8.4070 ha         1 5FY       0.153500
     56 H24          3.9400     0.9400   -10.7190 ha         1 5FY       0.153500
     57 H25          2.2910    -0.9930   -12.2140 ho         1 5FY       0.425000
     58 H26          0.8260    -1.8450    -9.8020 ha         1 5FY       0.153500
     59 H27          1.6640    -2.0230    -7.4910 ha         1 5FY       0.153500
@<TRIPOS>BOND
     1    34    35 ar
     2    34    32 ar
     3    35    29 ar
     4    33    32 1
     5    32    31 ar
     6    29    28 1
     7    29    30 ar
     8    28    25 1
     9    31    30 ar
    10    26    25 2
    11    25    27 2
    12    25    24 1
    13    24    23 1
    14    24    19 1
    15    23    22 1
    16    19    10 1
    17    19    20 1
    18    21    20 2
    19    10    11 1
    20    10     9 2
    21    18    17 1
    22    20    22 1
    23    11    17 ar
    24    11    12 ar
    25    17    16 ar
    26    12    13 ar
    27    22     9 1
    28    16    14 ar
    29    13    14 ar
    30    14    15 1
    31     9     8 1
    32     1     2 1
    33     8     2 ar
    34     8     7 ar
    35     2     3 ar
    36     7     6 ar
    37     3     4 ar
    38     6     4 ar
    39     4     5 1
    40     1    36 1
    41     1    37 1
    42     1    38 1
    43     3    39 1
    44     5    40 1
    45     6    41 1
    46     7    42 1
    47    12    43 1
    48    13    44 1
    49    15    45 1
    50    16    46 1
    51    18    47 1
    52    18    48 1
    53    18    49 1
    54    19    50 1
    55    22    51 1
    56    23    52 1
    57    23    53 1
    58    24    54 1
    59    30    55 1
    60    31    56 1
    61    33    57 1
    62    34    58 1
    63    35    59 1
@<TRIPOS>SUBSTRUCTURE
     1 5FY         1 TEMP              0 ****  ****    0 ROOT
