@<TRIPOS>MOLECULE
molecule
   44    45     1     0     0
SMALL
bcc


@<TRIPOS>ATOM
      1 OAR          0.0000     0.0000     0.0000 o          1 5G0      -0.549000
      2 CAP          1.2160     0.0000     0.0000 c          1 5G0       0.749100
      3 NAO          1.8890     0.0000     1.1660 ns         1 5G0      -0.459100
      4 CAS          1.1950     0.1120     2.3760 ca         1 5G0       0.070600
      5 CAT          1.6650    -0.5330     3.5120 ca         1 5G0      -0.142500
      6 CAU          0.9780    -0.4190     4.7040 ca         1 5G0      -0.111000
      7 CAV         -0.1790     0.3360     4.7680 ca         1 5G0      -0.144000
      8 CAW         -0.6510     0.9800     3.6380 ca         1 5G0      -0.111000
      9 CAX          0.0360     0.8750     2.4440 ca         1 5G0      -0.142500
     10 OAQ          1.8880    -0.0070    -1.1660 os         1 5G0      -0.130600
     11 NAY          1.2240    -0.0110    -2.1870 n2         1 5G0      -0.422200
     12 CAA          1.8100    -0.0180    -3.3370 c2         1 5G0       0.515600
     13 OAL          3.1650    -0.0190    -3.4310 os         1 5G0      -0.412400
     14 CAE          3.7280    -1.0240    -4.2820 c3         1 5G0       0.151100
     15 CAF          5.2360    -0.8000    -4.4090 c3         1 5G0       0.148400
     16 OAM          5.8550    -0.9920    -3.1360 oh         1 5G0      -0.597800
     17 CAD          3.0790    -0.9360    -5.6660 c3         1 5G0       0.092100
     18 OAK          3.3510     0.3440    -6.2390 oh         1 5G0      -0.573800
     19 CAC          1.5660    -1.1240    -5.5310 c3         1 5G0       0.121100
     20 CAB          1.0070    -0.0310    -4.6200 c3         1 5G0       0.104400
     21 NAI         -0.3990    -0.3090    -4.3190 ns         1 5G0      -0.573900
     22 CAG         -1.2250     0.6950    -3.9680 c          1 5G0       0.675100
     23 OAN         -0.8050     1.8310    -3.8990 o          1 5G0      -0.598100
     24 CAH         -2.6720     0.4090    -3.6590 c3         1 5G0      -0.165100
     25 OAJ          0.9550    -1.0340    -6.8200 oh         1 5G0      -0.582800
     26 HAO          2.8870    -0.0760     1.1680 hn         1 5G0       0.335500
     27 HAT          2.5710    -1.1240     3.4630 ha         1 5G0       0.148000
     28 HAX         -0.3340     1.3790     1.5600 ha         1 5G0       0.148000
     29 HAU          1.3460    -0.9230     5.5900 ha         1 5G0       0.133000
     30 HAV         -0.7180     0.4220     5.7040 ha         1 5G0       0.130000
     31 HAW         -1.5560     1.5720     3.6910 ha         1 5G0       0.133000
     32 HAB          1.0960     0.9300    -5.1120 h1         1 5G0       0.135700
     33 HAE          3.5370    -2.0020    -3.8570 h1         1 5G0       0.056700
     34 HAF1         5.4220     0.2100    -4.7520 h1         1 5G0       0.038700
     35 HAF2         5.6470    -1.5060    -5.1210 h1         1 5G0       0.038700
     36 HAD          3.4830    -1.7150    -6.3010 h1         1 5G0       0.041700
     37 HAM          6.7890    -1.0620    -3.2490 ho         1 5G0       0.404000
     38 HAK          3.7210     0.2300    -7.0990 ho         1 5G0       0.408000
     39 HAC          1.3610    -2.0940    -5.0960 h1         1 5G0       0.040700
     40 HAJ          0.8360    -1.9000    -7.1730 ho         1 5G0       0.403000
     41 HAI         -0.7450    -1.2460    -4.3760 hn         1 5G0       0.311500
     42 HAH1        -3.0950     1.2380    -3.1050 hc         1 5G0       0.061033
     43 HAH2        -3.2210     0.2760    -4.5830 hc         1 5G0       0.061033
     44 HAH3        -2.7430    -0.4950    -3.0650 hc         1 5G0       0.061033
@<TRIPOS>BOND
     1     1     2 2   
     2     2     3 1   
     3     2    10 1   
     4     3     4 1   
     5     4     5 ar  
     6     4     9 ar  
     7     5     6 ar  
     8     6     7 ar  
     9     7     8 ar  
    10     8     9 ar  
    11    10    11 1   
    12    11    12 2   
    13    12    13 1   
    14    12    20 1   
    15    13    14 1   
    16    14    15 1   
    17    14    17 1   
    18    15    16 1   
    19    17    18 1   
    20    17    19 1   
    21    19    20 1   
    22    19    25 1   
    23    20    21 1   
    24    21    22 1   
    25    22    23 2   
    26    22    24 1   
    27     3    26 1   
    28     5    27 1   
    29     9    28 1   
    30     6    29 1   
    31     7    30 1   
    32     8    31 1   
    33    20    32 1   
    34    14    33 1   
    35    15    34 1   
    36    15    35 1   
    37    17    36 1   
    38    16    37 1   
    39    18    38 1   
    40    19    39 1   
    41    25    40 1   
    42    21    41 1   
    43    24    42 1   
    44    24    43 1   
    45    24    44 1   
@<TRIPOS>SUBSTRUCTURE
     1 5G0         1 TEMP              0 ****  ****    0 ROOT
