@<TRIPOS>MOLECULE
5G0
   44    45     1     0     0
SMALL
bcc


@<TRIPOS>ATOM
      1 OAR          0.0000     0.0000     0.0000 o          1 5G0      -0.597000
      2 CAP          1.2160     0.0000     0.0000 c          1 5G0       0.640100
      3 NAO          1.8890     0.0000     1.1660 ns         1 5G0       0.000900
      4 CAS          1.1950     0.1120     2.3760 ca         1 5G0      -0.087400
      5 CAT          1.6650    -0.5330     3.5120 ca         1 5G0      -0.115000
      6 CAU          0.9780    -0.4190     4.7040 ca         1 5G0      -0.082500
      7 CAV         -0.1790     0.3360     4.7680 ca         1 5G0      -0.113000
      8 CAW         -0.6510     0.9800     3.6380 ca         1 5G0      -0.082500
      9 CAX          0.0360     0.8750     2.4440 ca         1 5G0      -0.115000
     10 OAQ          1.8880    -0.0070    -1.1660 os         1 5G0      -0.124600
     11 NAY          1.2240    -0.0110    -2.1870 n2         1 5G0      -0.333200
     12 CAA          1.8100    -0.0180    -3.3370 c2         1 5G0       0.449600
     13 OAL          3.1650    -0.0190    -3.4310 os         1 5G0      -0.387400
     14 CAE          3.7280    -1.0240    -4.2820 c3         1 5G0       0.173100
     15 CAF          5.2360    -0.8000    -4.4090 c3         1 5G0       0.222400
     16 OAM          5.8550    -0.9920    -3.1360 oh         1 5G0      -0.584800
     17 CAD          3.0790    -0.9360    -5.6660 c3         1 5G0       0.136100
     18 OAK          3.3510     0.3440    -6.2390 oh         1 5G0      -0.555800
     19 CAC          1.5660    -1.1240    -5.5310 c3         1 5G0       0.160100
     20 CAB          1.0070    -0.0310    -4.6200 c3         1 5G0      -0.006600
     21 NAI         -0.3990    -0.3090    -4.3190 ns         1 5G0      -0.177900
     22 CAG         -1.2250     0.6950    -3.9680 c          1 5G0       0.587100
     23 OAN         -0.8050     1.8310    -3.8990 o          1 5G0      -0.641100
     24 CAH         -2.6720     0.4090    -3.6590 c3         1 5G0      -0.065100
     25 OAJ          0.9550    -1.0340    -6.8200 oh         1 5G0      -0.568800
     26 HAO          2.8880    -0.0630     1.1670 hn         1 5G0       0.168500
     27 HAT          2.5710    -1.1240     3.4630 ha         1 5G0       0.124500
     28 HAX         -0.3340     1.3790     1.5600 ha         1 5G0       0.124500
     29 HAU          1.3460    -0.9230     5.5900 ha         1 5G0       0.103500
     30 HAV         -0.7180     0.4220     5.7040 ha         1 5G0       0.103000
     31 HAW         -1.5560     1.5720     3.6910 ha         1 5G0       0.103500
     32 HAB          1.0960     0.9300    -5.1120 h1         1 5G0       0.098700
     33 HAE          3.5380    -2.0020    -3.8570 h1         1 5G0       0.021700
     34 HAF1         5.6470    -1.5060    -5.1210 h1         1 5G0       0.000200
     35 HAF2         5.4230     0.2100    -4.7530 h1         1 5G0       0.000200
     36 HAD          3.4830    -1.7150    -6.3020 h1         1 5G0       0.007700
     37 HAM          6.7920    -0.9510    -3.2330 ho         1 5G0       0.391000
     38 HAK          3.6460     0.2340    -7.1280 ho         1 5G0       0.393000
     39 HAC          1.3610    -2.0940    -5.0960 h1         1 5G0       0.006700
     40 HAJ          0.7400    -1.8990    -7.1280 ho         1 5G0       0.388000
     41 HAI         -0.7490    -1.2440    -4.3860 hn         1 5G0       0.166500
     42 HAH1        -2.7370    -0.4360    -2.9830 hc         1 5G0       0.022033
     43 HAH2        -3.1210     1.2780    -3.1940 hc         1 5G0       0.022033
     44 HAH3        -3.1990     0.1780    -4.5770 hc         1 5G0       0.022033
@<TRIPOS>BOND
     1     1     2 2   
     2     2     3 1   
     3     2    10 1   
     4     3     4 1   
     5     3    26 1   
     6     4     5 ar  
     7     4     9 ar  
     8     5     6 ar  
     9     5    27 1   
    10     6     7 ar  
    11     6    29 1   
    12     7     8 ar  
    13     7    30 1   
    14     8     9 ar  
    15     8    31 1   
    16     9    28 1   
    17    10    11 1   
    18    11    12 2   
    19    12    13 1   
    20    12    20 1   
    21    13    14 1   
    22    14    15 1   
    23    14    17 1   
    24    14    33 1   
    25    15    16 1   
    26    15    34 1   
    27    15    35 1   
    28    16    37 1   
    29    17    18 1   
    30    17    19 1   
    31    17    36 1   
    32    18    38 1   
    33    19    20 1   
    34    19    25 1   
    35    19    39 1   
    36    20    21 1   
    37    20    32 1   
    38    21    22 1   
    39    21    41 1   
    40    22    23 2   
    41    22    24 1   
    42    24    42 1   
    43    24    43 1   
    44    24    44 1   
    45    25    40 1   
@<TRIPOS>SUBSTRUCTURE
     1 5G0         1 TEMP              0 ****  ****    0 ROOT
