@<TRIPOS>MOLECULE
molecule
   19    19     1     0     0
SMALL
bcc


@<TRIPOS>ATOM
      1 C4           0.0000     0.0000     0.0000 ca         1 5G1      -0.173600
      2 C5           1.3960     0.0000     0.0000 ca         1 5G1      -0.090000
      3 C6          -0.7420    -0.0000    -1.2780 c          1 5G1       0.680700
      4 N1          -0.7580    -0.0010    -3.6290 nz         1 5G1      -0.531600
      5 Cl          -2.4280    -0.0060     1.2260 cl         1 5G1      -0.032400
      6 C3          -0.6910    -0.0050     1.2130 ca         1 5G1       0.098400
      7 C2           0.0090    -0.0100     2.4040 ca         1 5G1      -0.119000
      8 C1           1.3920    -0.0110     2.3950 ca         1 5G1      -0.057000
      9 C            2.0830     0.0000     1.1950 ca         1 5G1      -0.123000
     10 O           -1.9580    -0.0010    -1.2750 o          1 5G1      -0.536100
     11 N           -0.0720    -0.0010    -2.4470 ns         1 5G1      -0.528300
     12 H1           1.9380     0.0600    -0.9360 ha         1 5G1       0.117000
     13 H2          -0.1090    -0.0000    -4.3910 hn         1 5G1       0.469800
     14 H3          -1.3330     0.8160    -3.6800 hn         1 5G1       0.469800
     15 H4          -0.5260    -0.0140     3.3460 ha         1 5G1       0.174000
     16 H5           1.9370    -0.0200     3.3310 ha         1 5G1       0.164000
     17 H6           3.1660     0.0040     1.2310 ha         1 5G1       0.159000
     18 H7           0.9290    -0.0040    -2.4490 hn         1 5G1       0.389500
     19 H13         -1.3330    -0.8180    -3.6800 hn         1 5G1       0.469800
@<TRIPOS>BOND
     1     7     8 ar  
     2     7     6 ar  
     3     5     6 1   
     4     8     9 ar  
     5    11     4 1   
     6    11     3 1   
     7     6     1 ar  
     8     9     2 ar  
     9     1     2 ar  
    10     1     3 1   
    11     3    10 2   
    12     2    12 1   
    13     4    13 1   
    14     4    14 1   
    15     7    15 1   
    16     8    16 1   
    17     9    17 1   
    18    11    18 1   
    19    19     4 1   
@<TRIPOS>SUBSTRUCTURE
     1 5G1         1 TEMP              0 ****  ****    0 ROOT
