@<TRIPOS>MOLECULE
5G1
   19    19     1     0     0
SMALL
bcc


@<TRIPOS>ATOM
      1 C4           0.0000     0.0000     0.0000 ca         1 5G1      -0.201600
      2 C5           1.3960     0.0000     0.0000 ca         1 5G1      -0.059000
      3 C6          -0.7420    -0.0000    -1.2780 c          1 5G1       0.650700
      4 N1          -0.7580    -0.0010    -3.6290 nz         1 5G1       0.289400
      5 Cl          -2.4280    -0.0060     1.2260 cl         1 5G1       0.074600
      6 C3          -0.6910    -0.0050     1.2130 ca         1 5G1       0.023400
      7 C2           0.0090    -0.0100     2.4040 ca         1 5G1      -0.096000
      8 C1           1.3920    -0.0110     2.3950 ca         1 5G1      -0.018000
      9 C            2.0830     0.0000     1.1950 ca         1 5G1      -0.095000
     10 O           -1.9580    -0.0010    -1.2750 o          1 5G1      -0.583100
     11 N           -0.0720    -0.0010    -2.4470 ns         1 5G1      -0.391300
     12 H1           1.9380     0.0600    -0.9360 ha         1 5G1       0.087000
     13 H2          -0.1090    -0.0000    -4.3910 hn         1 5G1       0.219467
     14 H3          -1.3330     0.8160    -3.6800 hn         1 5G1       0.219467
     15 H4          -0.5260    -0.0140     3.3460 ha         1 5G1       0.136000
     16 H5           1.9370    -0.0200     3.3310 ha         1 5G1       0.123000
     17 H6           3.1660     0.0040     1.2310 ha         1 5G1       0.125000
     18 H7           0.9290    -0.0040    -2.4490 hn         1 5G1       0.275500
     19 H13         -1.3330    -0.8180    -3.6800 hn         1 5G1       0.219467
@<TRIPOS>BOND
     1     1     2 ar  
     2     1     3 1   
     3     1     6 ar  
     4     2     9 ar  
     5     2    12 1   
     6     3    10 2   
     7     3    11 1   
     8     4    11 1   
     9     4    13 1   
    10     4    14 1   
    11     4    19 1   
    12     5     6 1   
    13     6     7 ar  
    14     7     8 ar  
    15     7    15 1   
    16     8     9 ar  
    17     8    16 1   
    18     9    17 1   
    19    11    18 1   
@<TRIPOS>SUBSTRUCTURE
     1 5G1         1 TEMP              0 ****  ****    0 ROOT
