@<TRIPOS>MOLECULE
molecule
   33    35     1     0     0
SMALL
bcc


@<TRIPOS>ATOM
      1 C01          0.0000     0.0000     0.0000 ce         1 5G2      -0.244100
      2 C02          1.3420     0.0000     0.0000 cf         1 5G2       0.030800
      3 C03          2.0190     0.0000     1.2940 cf         1 5G2       0.030800
      4 C04          1.2540    -0.0010     2.3970 ce         1 5G2      -0.244100
      5 C05          2.1100     0.0010    -1.2680 ca         1 5G2      -0.073800
      6 C06          3.4990    -0.0000     1.3870 ca         1 5G2      -0.073800
      7 C07          2.2040    -1.1660    -2.0280 ca         1 5G2       0.060900
      8 C08          2.9190    -1.1610    -3.2090 ca         1 5G2      -0.152000
      9 S01         -0.4010    -0.0000     1.7360 sy         1 5G2       1.173800
     10 C09          3.5440     0.0020    -3.6390 ca         1 5G2       0.126600
     11 C10          3.4520     1.1630    -2.8850 ca         1 5G2      -0.152500
     12 C11          2.7340     1.1680    -1.7070 ca         1 5G2      -0.083000
     13 C12          4.1770     1.1660     1.7420 ca         1 5G2       0.060900
     14 C13          5.5540     1.1620     1.8280 ca         1 5G2      -0.152000
     15 C14          6.2640    -0.0000     1.5600 ca         1 5G2       0.126600
     16 O03         -0.9940    -1.2560     2.0420 o          1 5G2      -0.594300
     17 C15          5.5920    -1.1620     1.2050 ca         1 5G2      -0.152500
     18 C16          4.2150    -1.1660     1.1240 ca         1 5G2      -0.083000
     19 O04         -0.9850     1.2570     2.0460 o          1 5G2      -0.594300
     20 Cl1          1.4240    -2.6200    -1.4900 cl         1 5G2      -0.083400
     21 Cl2          3.2900     2.6210     2.0770 cl         1 5G2      -0.083400
     22 H1          -0.5420     0.6450    -0.6810 h4         1 5G2       0.207000
     23 H2           5.1340    -0.2680    -4.6320 ho         1 5G2       0.424000
     24 H3           1.5040    -0.6470     3.2300 h4         1 5G2       0.207000
     25 H4           2.9930    -2.0660    -3.8000 ha         1 5G2       0.160000
     26 H5           7.9870     0.2700     0.8190 ho         1 5G2       0.424000
     27 H6           3.9370     2.0690    -3.2260 ha         1 5G2       0.151000
     28 H7           2.6630     2.0750    -1.1190 ha         1 5G2       0.151000
     29 H8           6.0820     2.0670     2.1040 ha         1 5G2       0.160000
     30 H9           6.1490    -2.0680     1.0010 ha         1 5G2       0.151000
     31 H10          3.6910    -2.0730     0.8470 ha         1 5G2       0.151000
     32 O02          7.6210    -0.0010     1.6450 oh         1 5G2      -0.515100
     33 O01          4.2470     0.0030    -4.8020 oh         1 5G2      -0.515100
@<TRIPOS>BOND
     1    33    10 1
     2    10    11 ar
     3    10     8 ar
     4    11    12 ar
     5     8     7 ar
     6    12     5 ar
     7     7     5 ar
     8     7    20 1
     9     5     2 1
    10     2     1 2
    11     2     3 1
    12    32    15 1
    13    15    14 ar
    14    15    17 ar
    15    14    13 ar
    16    17    18 ar
    17     1     9 1
    18    13    21 1
    19    13     6 ar
    20    18     6 ar
    21     6     3 1
    22     3     4 2
    23     4     9 1
    24    16     9 2
    25     9    19 2
    26     1    22 1
    27    33    23 1
    28     4    24 1
    29     8    25 1
    30    32    26 1
    31    11    27 1
    32    12    28 1
    33    14    29 1
    34    17    30 1
    35    18    31 1
@<TRIPOS>SUBSTRUCTURE
     1 5G2         1 TEMP              0 ****  ****    0 ROOT
