@<TRIPOS>MOLECULE
5G3
   38    40     1     0     0
SMALL
bcc


@<TRIPOS>ATOM
      1 O01          0.0000     0.0000     0.0000 oh         1 5G3      -0.500100
      2 C02          1.3580     0.0000     0.0000 ca         1 5G3       0.135100
      3 C03          2.0510     0.0000     1.2050 ca         1 5G3      -0.141000
      4 C04          3.4280     0.0000     1.2090 ca         1 5G3      -0.064000
      5 C05          4.1280     0.0010     0.0010 ca         1 5G3      -0.190900
      6 C06          5.6060     0.0010     0.0020 ce         1 5G3       0.505500
      7 C07          6.3440    -0.9970     0.7990 ca         1 5G3      -0.197900
      8 C08          5.6520    -2.0090     1.4700 ca         1 5G3      -0.041000
      9 C09          6.3430    -2.9390     2.2140 ca         1 5G3      -0.182000
     10 C10          7.7300    -2.8750     2.3000 ca         1 5G3       0.177100
     11 O11          8.4040    -3.7960     3.0360 oh         1 5G3      -0.501100
     12 C12          8.4270    -1.8750     1.6380 ca         1 5G3      -0.242000
     13 C13          7.7420    -0.9380     0.8830 ca         1 5G3       0.207100
     14 O14          8.4230     0.0380     0.2300 oh         1 5G3      -0.442100
     15 N15          6.2640     0.8900    -0.7100 nf         1 5G3      -0.437100
     16 C16          5.5900     1.9040    -1.3270 ca         1 5G3       0.106400
     17 C17          5.8050     2.1680    -2.6840 ca         1 5G3      -0.046600
     18 Cl1          6.9290     1.2050    -3.5910 cl         1 5G3      -0.006400
     19 C19          5.1190     3.1940    -3.3010 ca         1 5G3      -0.090000
     20 C20          4.2220     3.9630    -2.5790 ca         1 5G3      -0.109000
     21 C21          4.0050     3.7080    -1.2370 ca         1 5G3      -0.083000
     22 C22          4.6790     2.6820    -0.6080 ca         1 5G3      -0.130000
     23 C23          3.4290     0.0010    -1.2080 ca         1 5G3      -0.064000
     24 C24          2.0510    -0.0040    -1.2040 ca         1 5G3      -0.141000
     25 H1          -0.3140    -0.8840     0.0920 ho         1 5G3       0.405000
     26 H2           1.5070    -0.0000     2.1420 ha         1 5G3       0.117500
     27 H3           3.9680     0.0000     2.1480 ha         1 5G3       0.117000
     28 H5           4.5720    -2.0620     1.4040 ha         1 5G3       0.119000
     29 H6           5.8060    -3.7230     2.7330 ha         1 5G3       0.118000
     30 H7           8.4840    -3.4910     3.9240 ho         1 5G3       0.405000
     31 H8           9.5070    -1.8310     1.7070 ha         1 5G3       0.125000
     32 H9           9.1380     0.3360     0.7680 ho         1 5G3       0.395000
     33 H11          5.2840     3.3990    -4.3520 ha         1 5G3       0.113000
     34 H12          3.6880     4.7690    -3.0680 ha         1 5G3       0.105000
     35 H13          3.3000     4.3130    -0.6800 ha         1 5G3       0.105000
     36 H14          4.5080     2.4840     0.4440 ha         1 5G3       0.119000
     37 H15          3.9680     0.0000    -2.1480 ha         1 5G3       0.117000
     38 H16          1.5070    -0.0030    -2.1410 ha         1 5G3       0.117500
@<TRIPOS>BOND
     1     1     2 1   
     2     1    25 1   
     3     2     3 ar  
     4     2    24 ar  
     5     3     4 ar  
     6     3    26 1   
     7     4     5 ar  
     8     4    27 1   
     9     5     6 1   
    10     5    23 ar  
    11     6     7 1   
    12     6    15 2   
    13     7     8 ar  
    14     7    13 ar  
    15     8     9 ar  
    16     8    28 1   
    17     9    10 ar  
    18     9    29 1   
    19    10    11 1   
    20    10    12 ar  
    21    11    30 1   
    22    12    13 ar  
    23    12    31 1   
    24    13    14 1   
    25    14    32 1   
    26    15    16 1   
    27    16    17 ar  
    28    16    22 ar  
    29    17    18 1   
    30    17    19 ar  
    31    19    20 ar  
    32    19    33 1   
    33    20    21 ar  
    34    20    34 1   
    35    21    22 ar  
    36    21    35 1   
    37    22    36 1   
    38    23    24 ar  
    39    23    37 1   
    40    24    38 1   
@<TRIPOS>SUBSTRUCTURE
     1 5G3         1 TEMP              0 ****  ****    0 ROOT
