@<TRIPOS>MOLECULE
molecule
   38    40     1     0     0
SMALL
bcc


@<TRIPOS>ATOM
      1 O01          0.0000     0.0000     0.0000 oh         1 5G3      -0.521100
      2 C02          1.3580     0.0000     0.0000 ca         1 5G3       0.116100
      3 C03          2.0510     0.0000     1.2050 ca         1 5G3      -0.156500
      4 C04          3.4280     0.0000     1.2090 ca         1 5G3      -0.093500
      5 C05          4.1280     0.0010     0.0010 ca         1 5G3      -0.195900
      6 C06          5.6060     0.0010     0.0020 ce         1 5G3       0.544500
      7 C07          6.3440    -0.9970     0.7990 ca         1 5G3      -0.175900
      8 C08          5.6520    -2.0090     1.4700 ca         1 5G3      -0.067000
      9 C09          6.3430    -2.9390     2.2140 ca         1 5G3      -0.191000
     10 C10          7.7300    -2.8750     2.3000 ca         1 5G3       0.156100
     11 O11          8.4040    -3.7960     3.0360 oh         1 5G3      -0.522100
     12 C12          8.4270    -1.8750     1.6380 ca         1 5G3      -0.248000
     13 C13          7.7420    -0.9380     0.8830 ca         1 5G3       0.187100
     14 O14          8.4230     0.0380     0.2300 oh         1 5G3      -0.458100
     15 N15          6.2640     0.8900    -0.7100 nf         1 5G3      -0.540100
     16 C16          5.5900     1.9040    -1.3270 ca         1 5G3       0.142400
     17 C17          5.8050     2.1680    -2.6840 ca         1 5G3       0.028400
     18 Cl1          6.9290     1.2050    -3.5910 cl         1 5G3      -0.093400
     19 C19          5.1190     3.1940    -3.3010 ca         1 5G3      -0.117000
     20 C20          4.2220     3.9630    -2.5790 ca         1 5G3      -0.133000
     21 C21          4.0050     3.7080    -1.2370 ca         1 5G3      -0.115000
     22 C22          4.6790     2.6820    -0.6080 ca         1 5G3      -0.143000
     23 C23          3.4290     0.0010    -1.2080 ca         1 5G3      -0.093500
     24 C24          2.0510    -0.0040    -1.2040 ca         1 5G3      -0.156500
     25 H1          -0.3140    -0.8890     0.0260 ho         1 5G3       0.422000
     26 H2           1.5070    -0.0000     2.1420 ha         1 5G3       0.144500
     27 H3           3.9680     0.0000     2.1480 ha         1 5G3       0.146000
     28 H5           4.5720    -2.0620     1.4040 ha         1 5G3       0.149000
     29 H6           5.8060    -3.7230     2.7330 ha         1 5G3       0.145000
     30 H7           8.6810    -4.5030     2.4770 ho         1 5G3       0.426000
     31 H8           9.5070    -1.8310     1.7070 ha         1 5G3       0.148000
     32 H9           9.1430     0.3300     0.7650 ho         1 5G3       0.418000
     33 H11          5.2840     3.3990    -4.3520 ha         1 5G3       0.144000
     34 H12          3.6880     4.7690    -3.0680 ha         1 5G3       0.135000
     35 H13          3.3000     4.3130    -0.6800 ha         1 5G3       0.135000
     36 H14          4.5080     2.4840     0.4440 ha         1 5G3       0.145000
     37 H15          3.9680     0.0000    -2.1480 ha         1 5G3       0.146000
     38 H16          1.5070    -0.0030    -2.1410 ha         1 5G3       0.144500
@<TRIPOS>BOND
     1    20    21 ar
     2    20    19 ar
     3    21    22 ar
     4    19    17 ar
     5    22    16 ar
     6    17    16 ar
     7    17    18 1
     8    16    15 1
     9    15     6 2
    10     1     2 1
    11    24     2 ar
    12    24    23 ar
    13     2     3 ar
    14    23     5 ar
    15     3     4 ar
    16     5     4 ar
    17     5     6 1
    18     6     7 1
    19    14    13 1
    20     7    13 ar
    21     7     8 ar
    22    13    12 ar
    23     8     9 ar
    24    12    10 ar
    25     9    10 ar
    26    10    11 1
    27     1    25 1
    28     3    26 1
    29     4    27 1
    30     8    28 1
    31     9    29 1
    32    11    30 1
    33    12    31 1
    34    14    32 1
    35    19    33 1
    36    20    34 1
    37    21    35 1
    38    22    36 1
    39    23    37 1
    40    24    38 1
@<TRIPOS>SUBSTRUCTURE
     1 5G3         1 TEMP              0 ****  ****    0 ROOT
