@<TRIPOS>MOLECULE
molecule
   41    43     1     0     0
SMALL
bcc


@<TRIPOS>ATOM
      1 O01          0.0000     0.0000     0.0000 oh         1 5G4      -0.522100
      2 C02          1.3580     0.0000     0.0000 ca         1 5G4       0.115100
      3 C03          2.0510     0.0000     1.2040 ca         1 5G4      -0.156000
      4 C04          3.4290     0.0000     1.2090 ca         1 5G4      -0.093500
      5 C05          4.1290    -0.0000     0.0000 ca         1 5G4      -0.190900
      6 C06          5.6060    -0.0020     0.0010 ce         1 5G4       0.534500
      7 C07          6.3440    -0.9980     0.8010 ca         1 5G4      -0.172900
      8 C08          5.6500    -2.0040     1.4800 ca         1 5G4      -0.068000
      9 C09          6.3410    -2.9320     2.2250 ca         1 5G4      -0.189000
     10 C10          7.7290    -2.8730     2.3050 ca         1 5G4       0.153100
     11 O11          8.4030    -3.7930     3.0420 oh         1 5G4      -0.522100
     12 C12          8.4260    -1.8790     1.6340 ca         1 5G4      -0.247000
     13 C13          7.7430    -0.9430     0.8770 ca         1 5G4       0.183100
     14 O14          8.4240     0.0260     0.2160 oh         1 5G4      -0.462100
     15 N15          6.2640     0.8860    -0.7120 nf         1 5G4      -0.544100
     16 C16          5.5900     1.8960    -1.3360 ca         1 5G4       0.131400
     17 C17          5.8040     2.1490    -2.6950 ca         1 5G4      -0.073300
     18 C18          6.7800     1.3070    -3.4760 c3         1 5G4      -0.038800
     19 C19          5.1180     3.1700    -3.3190 ca         1 5G4      -0.124000
     20 C20          4.2220     3.9450    -2.6040 ca         1 5G4      -0.136000
     21 C21          4.0050     3.7000    -1.2590 ca         1 5G4      -0.126000
     22 C22          4.6780     2.6790    -0.6220 ca         1 5G4      -0.146000
     23 C23          3.4290    -0.0010    -1.2080 ca         1 5G4      -0.093500
     24 C24          2.0510    -0.0050    -1.2050 ca         1 5G4      -0.156000
     25 H1          -0.3140     0.8890    -0.0050 ho         1 5G4       0.422000
     26 H2           1.5070     0.0000     2.1410 ha         1 5G4       0.144000
     27 H3           3.9680     0.0000     2.1480 ha         1 5G4       0.144500
     28 H4           4.5700    -2.0530     1.4190 ha         1 5G4       0.152000
     29 H5           5.8030    -3.7120     2.7500 ha         1 5G4       0.146000
     30 H6           8.6570    -4.5140     2.4890 ho         1 5G4       0.426000
     31 H7           9.5070    -1.8390     1.6970 ha         1 5G4       0.147000
     32 H8           9.1440     0.3220     0.7480 ho         1 5G4       0.418000
     33 H9           7.7810     1.4680    -3.0940 hc         1 5G4       0.046033
     34 H10          6.5180     0.2610    -3.3730 hc         1 5G4       0.046033
     35 H11          6.7420     1.5870    -4.5210 hc         1 5G4       0.046033
     36 H12          5.2830     3.3670    -4.3710 ha         1 5G4       0.132000
     37 H13          3.6880     4.7470    -3.0990 ha         1 5G4       0.127000
     38 H14          3.3000     4.3090    -0.7060 ha         1 5G4       0.127000
     39 H15          4.5070     2.4900     0.4300 ha         1 5G4       0.137000
     40 H16          3.9690    -0.0030    -2.1470 ha         1 5G4       0.144500
     41 H17          1.5080    -0.0060    -2.1420 ha         1 5G4       0.144000
@<TRIPOS>BOND
     1    20    21 ar
     2    20    19 ar
     3    21    22 ar
     4    19    17 ar
     5    22    16 ar
     6    17    16 ar
     7    17    18 1
     8    16    15 1
     9    15     6 2
    10     1     2 1
    11    24     2 ar
    12    24    23 ar
    13     2     3 ar
    14    23     5 ar
    15     3     4 ar
    16     5     4 ar
    17     5     6 1
    18     6     7 1
    19    14    13 1
    20     7    13 ar
    21     7     8 ar
    22    13    12 ar
    23     8     9 ar
    24    12    10 ar
    25     9    10 ar
    26    10    11 1
    27     1    25 1
    28     3    26 1
    29     4    27 1
    30     8    28 1
    31     9    29 1
    32    11    30 1
    33    12    31 1
    34    14    32 1
    35    18    33 1
    36    18    34 1
    37    18    35 1
    38    19    36 1
    39    20    37 1
    40    21    38 1
    41    22    39 1
    42    23    40 1
    43    24    41 1
@<TRIPOS>SUBSTRUCTURE
     1 5G4         1 TEMP              0 ****  ****    0 ROOT
