@<TRIPOS>MOLECULE
molecule
   37    39     1     0     0
SMALL
bcc


@<TRIPOS>ATOM
      1 Cl1          0.0000     0.0000     0.0000 cl         1 5G5      -0.093400
      2 C01          1.7350     0.0000     0.0000 ca         1 5G5       0.026400
      3 C02          2.4280     0.0000     1.1930 ca         1 5G5      -0.115000
      4 C03          3.8120    -0.0050     1.1940 ca         1 5G5      -0.131000
      5 C04          4.5120    -0.0090     0.0010 ca         1 5G5      -0.114000
      6 C05          3.8340    -0.0090    -1.2010 ca         1 5G5      -0.141000
      7 C06          2.4370    -0.0040    -1.2110 ca         1 5G5       0.142400
      8 N01          1.7590    -0.0100    -2.3970 ne         1 5G5      -0.574100
      9 C07          2.0670     0.8590    -3.3330 cf         1 5G5       0.552500
     10 C08          3.0200     1.9500    -3.0430 ca         1 5G5      -0.175900
     11 C09          2.8670     2.7280    -1.8930 ca         1 5G5      -0.085000
     12 C10          3.7580     3.7450    -1.6270 ca         1 5G5      -0.161500
     13 C11          4.8080     3.9970    -2.5020 ca         1 5G5       0.121100
     14 O01          5.6840     5.0000    -2.2360 oh         1 5G5      -0.521600
     15 C12          4.9640     3.2260    -3.6470 ca         1 5G5      -0.161500
     16 C13          4.0810     2.2040    -3.9170 ca         1 5G5      -0.085000
     17 C14          1.4590     0.7460    -4.6750 ca         1 5G5      -0.175900
     18 C15          1.6600     1.7530    -5.6220 ca         1 5G5      -0.085000
     19 C16          1.0960     1.6400    -6.8740 ca         1 5G5      -0.161500
     20 C17          0.3290     0.5270    -7.1950 ca         1 5G5       0.121100
     21 O02         -0.2250     0.4200    -8.4300 oh         1 5G5      -0.521600
     22 C18          0.1260    -0.4770    -6.2560 ca         1 5G5      -0.161500
     23 C19          0.6870    -0.3720    -5.0020 ca         1 5G5      -0.085000
     24 H1           1.8870     0.0030     2.1310 ha         1 5G5       0.145000
     25 H2           4.3500    -0.0050     2.1350 ha         1 5G5       0.136000
     26 H3           5.5950    -0.0130     0.0100 ha         1 5G5       0.136000
     27 H4           4.3840    -0.0120    -2.1340 ha         1 5G5       0.145000
     28 H5           2.0490     2.5320    -1.2100 ha         1 5G5       0.149500
     29 H6           3.6400     4.3480    -0.7350 ha         1 5G5       0.145000
     30 H7           5.3890     5.7930    -2.6540 ho         1 5G5       0.422500
     31 H8           5.7850     3.4250    -4.3240 ha         1 5G5       0.145000
     32 H9           4.2040     1.6040    -4.8100 ha         1 5G5       0.149500
     33 H10          2.2580     2.6210    -5.3730 ha         1 5G5       0.149500
     34 H11          1.2510     2.4200    -7.6090 ha         1 5G5       0.145000
     35 H12          0.3540    -0.0670    -8.9930 ho         1 5G5       0.422500
     36 H13         -0.4730    -1.3430    -6.5100 ha         1 5G5       0.145000
     37 H14          0.5290    -1.1550    -4.2700 ha         1 5G5       0.149500
@<TRIPOS>BOND
     1     4     5 ar  
     2     4     3 ar  
     3     5     6 ar  
     4     3     2 ar  
     5     6     7 ar  
     6     2     7 ar  
     7     2     1 1   
     8     7     8 1   
     9     8     9 2   
    10    21    20 1   
    11    19    20 ar  
    12    19    18 ar  
    13    20    22 ar  
    14    18    17 ar  
    15    22    23 ar  
    16    17    23 ar  
    17    17     9 1   
    18     9    10 1   
    19    10    11 ar  
    20    10    16 ar  
    21    11    12 ar  
    22    16    15 ar  
    23    12    13 ar  
    24    15    13 ar  
    25    13    14 1   
    26     3    24 1   
    27     4    25 1   
    28     5    26 1   
    29     6    27 1   
    30    11    28 1   
    31    12    29 1   
    32    14    30 1   
    33    15    31 1   
    34    16    32 1   
    35    18    33 1   
    36    19    34 1   
    37    21    35 1   
    38    22    36 1   
    39    23    37 1   
@<TRIPOS>SUBSTRUCTURE
     1 5G5         1 TEMP              0 ****  ****    0 ROOT
