@<TRIPOS>MOLECULE
molecule
   37    39     1     0     0
SMALL
bcc


@<TRIPOS>ATOM
      1 O01          0.0000     0.0000     0.0000 oh         1 5G6      -0.521600
      2 C02          1.3570     0.0000     0.0000 ca         1 5G6       0.120600
      3 C03          2.0500     0.0000     1.2050 ca         1 5G6      -0.161500
      4 C04          3.4280    -0.0000     1.2090 ca         1 5G6      -0.085750
      5 C05          4.1290    -0.0030     0.0020 ca         1 5G6      -0.173900
      6 C06          5.6060    -0.0040     0.0010 ce         1 5G6       0.546500
      7 C07          6.3440    -0.8810    -0.9310 ca         1 5G6      -0.173900
      8 C08          7.7280    -0.7500    -1.0680 ca         1 5G6      -0.085750
      9 C09          8.4130    -1.5700    -1.9380 ca         1 5G6      -0.161500
     10 C10          7.7280    -2.5250    -2.6790 ca         1 5G6       0.120600
     11 O11          8.4060    -3.3320    -3.5350 oh         1 5G6      -0.521600
     12 C12          6.3510    -2.6590    -2.5460 ca         1 5G6      -0.161500
     13 C13          5.6600    -1.8470    -1.6730 ca         1 5G6      -0.085750
     14 N14          6.2640     0.7740     0.8310 nf         1 5G6      -0.581100
     15 C15          5.5890     1.6800     1.5990 ca         1 5G6       0.136400
     16 C16          4.7800     2.6470     0.9960 ca         1 5G6      -0.140500
     17 C17          4.1010     3.5580     1.7770 ca         1 5G6      -0.116500
     18 C18          4.2190     3.5160     3.1550 ca         1 5G6      -0.140000
     19 C19          5.0180     2.5610     3.7600 ca         1 5G6      -0.116500
     20 C20          5.6970     1.6390     2.9920 ca         1 5G6      -0.140500
     21 C21          3.4290    -0.0030    -1.2080 ca         1 5G6      -0.085750
     22 C22          2.0510    -0.0080    -1.2040 ca         1 5G6      -0.161500
     23 H1          -0.3140    -0.8890     0.0020 ho         1 5G6       0.422000
     24 H2           1.5060     0.0020     2.1420 ha         1 5G6       0.144250
     25 H3           3.9660    -0.0000     2.1490 ha         1 5G6       0.149250
     26 H5           8.2620    -0.0050    -0.4900 ha         1 5G6       0.149250
     27 H6           9.4860    -1.4690    -2.0460 ha         1 5G6       0.144250
     28 H7           8.4430    -2.9260    -4.3860 ho         1 5G6       0.422000
     29 H8           5.8220    -3.4070    -3.1240 ha         1 5G6       0.144250
     30 H9           4.5870    -1.9510    -1.5700 ha         1 5G6       0.149250
     31 H11          4.6860     2.6810    -0.0820 ha         1 5G6       0.140000
     32 H12          3.4740     4.3090     1.3110 ha         1 5G6       0.131500
     33 H13          3.6860     4.2360     3.7640 ha         1 5G6       0.129000
     34 H14          5.1030     2.5320     4.8400 ha         1 5G6       0.131500
     35 H15          6.3220     0.8920     3.4660 ha         1 5G6       0.140000
     36 H16          3.9690    -0.0070    -2.1470 ha         1 5G6       0.149250
     37 H17          1.5070    -0.0080    -2.1410 ha         1 5G6       0.144250
@<TRIPOS>BOND
     1     1     2 1   
     2    12    13 ar  
     3    12    10 ar  
     4    22     2 ar  
     5    22    21 ar  
     6    13     7 ar  
     7     2     3 ar  
     8    11    10 1   
     9    21     5 ar  
    10    10     9 ar  
    11     3     4 ar  
    12     5     4 ar  
    13     5     6 1   
    14     7     6 1   
    15     7     8 ar  
    16     6    14 2   
    17     9     8 ar  
    18    14    15 1   
    19    16    15 ar  
    20    16    17 ar  
    21    15    20 ar  
    22    17    18 ar  
    23    20    19 ar  
    24    18    19 ar  
    25     1    23 1   
    26     3    24 1   
    27     4    25 1   
    28     8    26 1   
    29     9    27 1   
    30    11    28 1   
    31    12    29 1   
    32    13    30 1   
    33    16    31 1   
    34    17    32 1   
    35    18    33 1   
    36    19    34 1   
    37    20    35 1   
    38    21    36 1   
    39    22    37 1   
@<TRIPOS>SUBSTRUCTURE
     1 5G6         1 TEMP              0 ****  ****    0 ROOT
