@<TRIPOS>MOLECULE
5G7
   40    42     1     0     0
SMALL
bcc


@<TRIPOS>ATOM
      1 O01          0.0000     0.0000     0.0000 oh         1 5G7      -0.501100
      2 C02          1.3580     0.0000     0.0000 ca         1 5G7       0.137600
      3 C03          2.0500     0.0000     1.2050 ca         1 5G7      -0.145250
      4 C04          3.4270     0.0010     1.2100 ca         1 5G7      -0.061000
      5 C05          2.0520    -0.0050    -1.2040 ca         1 5G7      -0.145250
      6 C06          3.4290    -0.0040    -1.2070 ca         1 5G7      -0.061000
      7 C07          4.1290     0.0010     0.0010 ca         1 5G7      -0.177400
      8 C08          5.6060     0.0030     0.0020 ce         1 5G7       0.499500
      9 C09          6.3450     0.2200    -1.2580 ca         1 5G7      -0.177400
     10 C10          7.4470    -0.5790    -1.5700 ca         1 5G7      -0.061000
     11 C11          8.1330    -0.3750    -2.7480 ca         1 5G7      -0.145250
     12 C12          7.7310     0.6260    -3.6230 ca         1 5G7       0.137600
     13 O13          8.4120     0.8280    -4.7800 oh         1 5G7      -0.501100
     14 C14          6.6350     1.4230    -3.3170 ca         1 5G7      -0.145250
     15 C15          5.9400     1.2210    -2.1450 ca         1 5G7      -0.061000
     16 N16          6.2620    -0.1890     1.1240 nf         1 5G7      -0.463100
     17 C17          7.6210    -0.0460     1.1540 ca         1 5G7       0.096400
     18 C18          8.4230    -1.0680     1.6680 ca         1 5G7      -0.094300
     19 C19          7.7920    -2.3320     2.1940 c3         1 5G7       0.067200
     20 C20          9.7930    -0.9180     1.6940 ca         1 5G7      -0.093000
     21 C21         10.3750     0.2430     1.2130 ca         1 5G7      -0.111000
     22 C22          9.5870     1.2590     0.7020 ca         1 5G7      -0.090000
     23 C23          8.2150     1.1200     0.6630 ca         1 5G7      -0.127000
     24 H1          -0.3140    -0.8890     0.0000 ho         1 5G7       0.404000
     25 H2           1.5050    -0.0000     2.1420 ha         1 5G7       0.116750
     26 H3           3.9660     0.0030     2.1500 ha         1 5G7       0.122000
     27 H4           1.5080    -0.0090    -2.1410 ha         1 5G7       0.116750
     28 H5           3.9690    -0.0060    -2.1470 ha         1 5G7       0.122000
     29 H7           7.7610    -1.3600    -0.8880 ha         1 5G7       0.122000
     30 H8           8.9880    -0.9950    -2.9900 ha         1 5G7       0.116750
     31 H9           8.0370     0.2970    -5.4630 ho         1 5G7       0.404000
     32 H10          6.3230     2.2010    -4.0040 ha         1 5G7       0.116750
     33 H11          5.0860     1.8430    -1.9070 ha         1 5G7       0.122000
     34 H13          8.5520    -2.9500     2.6560 hc         1 5G7       0.009700
     35 H14          7.3350    -2.8750     1.3750 hc         1 5G7       0.009700
     36 H15          7.0360    -2.0810     2.9270 hc         1 5G7       0.009700
     37 H16         10.4160    -1.7090     2.0930 ha         1 5G7       0.106000
     38 H17         11.4520     0.3570     1.2390 ha         1 5G7       0.103000
     39 H18         10.0490     2.1640     0.3240 ha         1 5G7       0.104000
     40 H19          7.5990     1.9160     0.2630 ha         1 5G7       0.117000
@<TRIPOS>BOND
     1     1     2 1   
     2     1    24 1   
     3     2     3 ar  
     4     2     5 ar  
     5     3     4 ar  
     6     3    25 1   
     7     4     7 ar  
     8     4    26 1   
     9     5     6 ar  
    10     5    27 1   
    11     6     7 ar  
    12     6    28 1   
    13     7     8 1   
    14     8     9 1   
    15     8    16 2   
    16     9    10 ar  
    17     9    15 ar  
    18    10    11 ar  
    19    10    29 1   
    20    11    12 ar  
    21    11    30 1   
    22    12    13 1   
    23    12    14 ar  
    24    13    31 1   
    25    14    15 ar  
    26    14    32 1   
    27    15    33 1   
    28    16    17 1   
    29    17    18 ar  
    30    17    23 ar  
    31    18    19 1   
    32    18    20 ar  
    33    19    34 1   
    34    19    35 1   
    35    19    36 1   
    36    20    21 ar  
    37    20    37 1   
    38    21    22 ar  
    39    21    38 1   
    40    22    23 ar  
    41    22    39 1   
    42    23    40 1   
@<TRIPOS>SUBSTRUCTURE
     1 5G7         1 TEMP              0 ****  ****    0 ROOT
