@<TRIPOS>MOLECULE
molecule
   40    42     1     0     0
SMALL
bcc


@<TRIPOS>ATOM
      1 O01          0.0000     0.0000     0.0000 oh         1 5G7      -0.522100
      2 C02          1.3580     0.0000     0.0000 ca         1 5G7       0.119600
      3 C03          2.0500     0.0000     1.2050 ca         1 5G7      -0.161250
      4 C04          3.4270     0.0010     1.2100 ca         1 5G7      -0.086000
      5 C05          2.0520    -0.0050    -1.2040 ca         1 5G7      -0.161250
      6 C06          3.4290    -0.0040    -1.2070 ca         1 5G7      -0.086000
      7 C07          4.1290     0.0010     0.0010 ca         1 5G7      -0.172900
      8 C08          5.6060     0.0030     0.0020 ce         1 5G7       0.541500
      9 C09          6.3450     0.2200    -1.2580 ca         1 5G7      -0.172900
     10 C10          7.4470    -0.5790    -1.5700 ca         1 5G7      -0.086000
     11 C11          8.1330    -0.3750    -2.7480 ca         1 5G7      -0.161250
     12 C12          7.7310     0.6260    -3.6230 ca         1 5G7       0.119600
     13 O13          8.4120     0.8280    -4.7800 oh         1 5G7      -0.522100
     14 C14          6.6350     1.4230    -3.3170 ca         1 5G7      -0.161250
     15 C15          5.9400     1.2210    -2.1450 ca         1 5G7      -0.086000
     16 N16          6.2620    -0.1890     1.1240 nf         1 5G7      -0.576100
     17 C17          7.6210    -0.0460     1.1540 ca         1 5G7       0.129400
     18 C18          8.4230    -1.0680     1.6680 ca         1 5G7      -0.079300
     19 C19          7.7920    -2.3320     2.1940 c3         1 5G7      -0.039800
     20 C20          9.7930    -0.9180     1.6940 ca         1 5G7      -0.123000
     21 C21         10.3750     0.2430     1.2130 ca         1 5G7      -0.134000
     22 C22          9.5870     1.2590     0.7020 ca         1 5G7      -0.121000
     23 C23          8.2150     1.1200     0.6630 ca         1 5G7      -0.142000
     24 H1          -0.3140     0.8880    -0.0330 ho         1 5G7       0.422000
     25 H2           1.5050    -0.0000     2.1420 ha         1 5G7       0.144000
     26 H3           3.9660     0.0030     2.1500 ha         1 5G7       0.149000
     27 H4           1.5080    -0.0090    -2.1410 ha         1 5G7       0.144000
     28 H5           3.9690    -0.0060    -2.1470 ha         1 5G7       0.149000
     29 H7           7.7610    -1.3600    -0.8880 ha         1 5G7       0.149000
     30 H8           8.9880    -0.9950    -2.9900 ha         1 5G7       0.144000
     31 H9           8.0630     0.2670    -5.4530 ho         1 5G7       0.422000
     32 H10          6.3230     2.2010    -4.0040 ha         1 5G7       0.144000
     33 H11          5.0860     1.8430    -1.9070 ha         1 5G7       0.149000
     34 H13          8.5620    -3.0760     2.3620 hc         1 5G7       0.045033
     35 H14          7.2840    -2.1210     3.1270 hc         1 5G7       0.045033
     36 H15          7.0790    -2.7070     1.4700 hc         1 5G7       0.045033
     37 H16         10.4160    -1.7090     2.0930 ha         1 5G7       0.132000
     38 H17         11.4520     0.3570     1.2390 ha         1 5G7       0.129000
     39 H18         10.0490     2.1640     0.3240 ha         1 5G7       0.132000
     40 H19          7.5990     1.9160     0.2630 ha         1 5G7       0.139000
@<TRIPOS>BOND
     1    21    22 ar
     2    21    20 ar
     3    22    23 ar
     4    20    18 ar
     5    23    17 ar
     6    18    17 ar
     7    18    19 1
     8    17    16 1
     9    16     8 2
    10    13    12 1
    11    12    14 ar
    12    12    11 ar
    13    14    15 ar
    14    11    10 ar
    15    15     9 ar
    16    10     9 ar
    17     9     8 1
    18     8     7 1
    19     7     4 ar
    20     7     6 ar
    21     4     3 ar
    22     6     5 ar
    23     3     2 ar
    24     5     2 ar
    25     2     1 1
    26     1    24 1
    27     3    25 1
    28     4    26 1
    29     5    27 1
    30     6    28 1
    31    10    29 1
    32    11    30 1
    33    13    31 1
    34    14    32 1
    35    15    33 1
    36    19    34 1
    37    19    35 1
    38    19    36 1
    39    20    37 1
    40    21    38 1
    41    22    39 1
    42    23    40 1
@<TRIPOS>SUBSTRUCTURE
     1 5G7         1 TEMP              0 ****  ****    0 ROOT
