@<TRIPOS>MOLECULE
5G8
   35    36     1     0     0
SMALL
bcc


@<TRIPOS>ATOM
      1 C1         -0.0800   -0.0110    0.0700 ca        1 5G8      0.139100
      2 C2          1.3300   -0.0270   -0.0360 ca        1 5G8     -0.006600
      3 C3          2.1090   -0.0190    1.1230 ca        1 5G8     -0.091000
      4 C4          1.4930    0.0050    2.3770 ca        1 5G8     -0.012600
      5 C5          0.1010    0.0210    2.4850 ca        1 5G8     -0.087000
      6 C6         -0.6830    0.0130    1.3350 ca        1 5G8     -0.194000
      7 C7         -2.2100    0.0010   -1.0080 c3        1 5G8      0.129400
      8 C8         -2.7240   -0.0110   -2.4380 c3        1 5G8     -0.086400
      9 CL2         2.1170   -0.0560   -1.5390 cl        1 5G8     -0.063400
     10 CL4         2.4500    0.0150    3.7810 cl        1 5G8     -0.085400
     11 O1         -0.7800   -0.0210   -1.1170 os        1 5G8     -0.314900
     12 C9         -4.2370    0.0040   -2.4480 c3        1 5G8     -0.078400
     13 C10        -4.7620   -0.0060   -3.8680 c3        1 5G8     -0.102400
     14 C11        -6.2930    0.0080   -3.8520 c3        1 5G8      0.040300
     15 N12        -6.9050   -0.0060   -5.1460 na        1 5G8     -0.209900
     16 C16        -7.1550   -1.1320   -5.9380 cc        1 5G8     -0.256600
     17 C15        -7.7080   -0.6520   -7.1380 cd        1 5G8      0.290200
     18 N14        -7.7930    0.7400   -7.1040 nd        1 5G8     -0.666000
     19 C13        -7.2980    1.1100   -5.9040 cc        1 5G8      0.386400
     20 H1          3.2080   -0.0320    1.0450 ha        1 5G8      0.163000
     21 H2         -0.3820    0.0400    3.4750 ha        1 5G8      0.151000
     22 H3         -1.7780    0.0260    1.4350 ha        1 5G8      0.145000
     23 H4         -2.5580   -0.9050   -0.4450 h1        1 5G8      0.041700
     24 H5         -2.5330    0.9300   -0.4690 h1        1 5G8      0.041700
     25 H6         -2.3400   -0.9240   -2.9630 hc        1 5G8      0.064200
     26 H7         -2.3210    0.8810   -2.9850 hc        1 5G8      0.064200
     27 H8         -4.6280   -0.8890   -1.8930 hc        1 5G8      0.042700
     28 H9         -4.6090    0.9180   -1.9130 hc        1 5G8      0.042700
     29 H10        -4.3740    0.8880   -4.4230 hc        1 5G8      0.058700
     30 H11        -4.3920   -0.9180   -4.4040 hc        1 5G8      0.058700
     31 H12        -6.6580   -0.8930   -3.2800 h1        1 5G8      0.059200
     32 H13        -6.6430    0.9330   -3.3100 h1        1 5G8      0.059200
     33 H14        -6.9390   -2.1420   -5.5980 h4        1 5G8      0.175000
     34 H15        -8.0450   -1.2210   -8.0030 h4        1 5G8      0.042100
     35 H16        -7.2150    2.1350   -5.5320 h5        1 5G8      0.059100
@<TRIPOS>BOND
     1    1    2 ar  
     2    1    6 ar  
     3    1   11 1   
     4    2    3 ar  
     5    2    9 1   
     6    3    4 ar  
     7    3   20 1   
     8    4    5 ar  
     9    4   10 1   
    10    5    6 ar  
    11    5   21 1   
    12    6   22 1   
    13    7    8 1   
    14    7   11 1   
    15    7   23 1   
    16    7   24 1   
    17    8   12 1   
    18    8   25 1   
    19    8   26 1   
    20   12   13 1   
    21   12   27 1   
    22   12   28 1   
    23   13   14 1   
    24   13   29 1   
    25   13   30 1   
    26   14   15 1   
    27   14   31 1   
    28   14   32 1   
    29   15   16 1   
    30   15   19 1   
    31   16   17 2   
    32   16   33 1   
    33   17   18 1   
    34   17   34 1   
    35   18   19 2   
    36   19   35 1   
@<TRIPOS>SUBSTRUCTURE
     1 5G8         1 TEMP              0 ****  ****    0 ROOT
