@<TRIPOS>MOLECULE
molecule
   35    36     1     0     0
SMALL
bcc


@<TRIPOS>ATOM
      1 C1           0.0000     0.0000     0.0000 ca         1 5G8       0.152100
      2 C2           1.3870     0.0000     0.0000 ca         1 5G8       0.002400
      3 C3           2.0780     0.0000     1.1990 ca         1 5G8      -0.080000
      4 C4           1.3850    -0.0010     2.3950 ca         1 5G8      -0.003600
      5 C5           0.0020    -0.0010     2.3970 ca         1 5G8      -0.081000
      6 C6          -0.6920     0.0060     1.2030 ca         1 5G8      -0.207000
      7 C7          -2.1080     0.0010    -1.1010 c3         1 5G8       0.136400
      8 C8          -2.6940     0.0020    -2.5140 c3         1 5G8      -0.080400
      9 Cl2          2.2570    -0.0010    -1.5030 cl         1 5G8      -0.081400
     10 Cl4          2.2530    -0.0010     3.8990 cl         1 5G8      -0.100400
     11 O1          -0.6820     0.0010    -1.1770 os         1 5G8      -0.313900
     12 C9          -4.2220     0.0020    -2.4320 c3         1 5G8      -0.080400
     13 C10         -4.8090     0.0020    -3.8450 c3         1 5G8      -0.101400
     14 C11         -6.3360     0.0020    -3.7640 c3         1 5G8       0.042300
     15 N12         -6.8970     0.0030    -5.1170 na         1 5G8      -0.190900
     16 C16         -7.2090    -1.0980    -5.8680 cc         1 5G8      -0.278600
     17 C15         -7.6950    -0.6470    -7.0400 cd         1 5G8       0.311200
     18 N14         -7.6800     0.6940    -7.0060 nd         1 5G8      -0.696000
     19 C13         -7.2100     1.0910    -5.8550 cc         1 5G8       0.393400
     20 H1           3.1610     0.0000     1.2000 ha         1 5G8       0.162000
     21 H2          -0.5380     0.0010     3.3370 ha         1 5G8       0.148000
     22 H3          -1.7760     0.0060     1.2050 ha         1 5G8       0.146000
     23 H4          -2.4420    -0.8840    -0.5720 h1         1 5G8       0.036700
     24 H5          -2.4420     0.8850    -0.5710 h1         1 5G8       0.036700
     25 H6          -2.3600    -0.8830    -3.0430 hc         1 5G8       0.061700
     26 H7          -2.3600     0.8860    -3.0430 hc         1 5G8       0.061700
     27 H8          -4.5550     0.8870    -1.9030 hc         1 5G8       0.043700
     28 H9          -4.5550    -0.8820    -1.9030 hc         1 5G8       0.043700
     29 H10         -4.4750     0.8860    -4.3750 hc         1 5G8       0.059200
     30 H11         -4.4750    -0.8830    -4.3740 hc         1 5G8       0.059200
     31 H12         -6.6700    -0.8830    -3.2350 h1         1 5G8       0.061200
     32 H13         -6.6700     0.8860    -3.2350 h1         1 5G8       0.061200
     33 H14         -7.0880    -2.1350    -5.5760 h4         1 5G8       0.172000
     34 H15         -8.0350    -1.2590    -7.8660 h4         1 5G8       0.041100
     35 H16         -7.0830     2.1210    -5.5450 h5         1 5G8       0.063100
@<TRIPOS>BOND
     1    19    18 2   
     2    19    15 1   
     3    18    17 1   
     4    15    14 1   
     5    15    16 1   
     6    17    16 2   
     7    14    13 1   
     8    13    12 1   
     9    10     4 1   
    10     5     6 ar  
    11     5     4 ar  
    12     6     1 ar  
    13     4     3 ar  
    14    12     8 1   
    15     8     7 1   
    16     7    11 1   
    17     1    11 1   
    18     1     2 ar  
    19     3     2 ar  
    20     2     9 1   
    21     3    20 1   
    22     5    21 1   
    23     6    22 1   
    24     7    23 1   
    25     7    24 1   
    26     8    25 1   
    27     8    26 1   
    28    12    27 1   
    29    12    28 1   
    30    13    29 1   
    31    13    30 1   
    32    14    31 1   
    33    14    32 1   
    34    16    33 1   
    35    17    34 1   
    36    19    35 1   
@<TRIPOS>SUBSTRUCTURE
     1 5G8         1 TEMP              0 ****  ****    0 ROOT
