@<TRIPOS>MOLECULE
5G9
   34    37     1     0     0
SMALL
bcc


@<TRIPOS>ATOM
      1 N1           0.0000     0.0000     0.0000 nb         1 5G9      -0.553000
      2 N3           4.6540    -0.1080    -4.0910 nv         1 5G9      -0.562500
      3 C4          -2.0220    -0.0000     3.5240 ca         1 5G9       0.412200
      4 C5           1.3230     0.0000     0.0000 ca         1 5G9       0.485800
      5 C6           2.0450     0.0000    -1.2810 cc         1 5G9      -0.165900
      6 C7           3.6100    -0.0510    -3.1880 cc         1 5G9       0.550300
      7 C8           1.4830     0.1360    -2.5270 cd         1 5G9       0.428800
      8 C10         -0.6290    -0.4600    -3.7090 ca         1 5G9      -0.065000
      9 C13         -2.0470     1.3840    -2.1960 ca         1 5G9      -0.114000
     10 C15          1.3980    -0.0010     2.3960 ca         1 5G9      -0.100300
     11 C11         -1.9860    -0.2980    -3.9080 ca         1 5G9      -0.045600
     12 C12         -2.6930     0.6220    -3.1530 ca         1 5G9      -0.092000
     13 C14         -0.6910     1.2310    -1.9890 ca         1 5G9      -0.042000
     14 C9           0.0270     0.3050    -2.7460 ca         1 5G9      -0.114500
     15 N2           2.3640     0.1020    -3.5130 nd         1 5G9      -0.557000
     16 S            3.7860    -0.1650    -1.4930 ss         1 5G9      -0.334300
     17 C16          2.0550     0.0000     1.2050 ca         1 5G9      -0.208300
     18 C           -0.0150    -0.0010     2.3860 ca         1 5G9       0.258300
     19 C1          -0.6910    -0.0010     1.1420 ca         1 5G9       0.261300
     20 C2          -2.1010    -0.0000     1.1360 ca         1 5G9      -0.111300
     21 C3          -2.7510     0.0000     2.3390 ca         1 5G9      -0.215300
     22 N           -0.7090    -0.0000     3.5250 nb         1 5G9      -0.561000
     23 H1           4.9470    -0.9910    -4.4610 hn         1 5G9       0.277800
     24 H2           5.1270     0.7310    -4.3620 hn         1 5G9       0.277800
     25 H3          -2.5500     0.0000     4.4690 h4         1 5G9      -0.019900
     26 H4          -0.0920    -1.2320    -4.2460 ha         1 5G9       0.121000
     27 H5          -2.6060     2.1020    -1.6090 ha         1 5G9       0.104000
     28 H6           1.9450    -0.0010     3.3310 ha         1 5G9       0.124000
     29 H7          -3.7580     0.7460    -3.3120 ha         1 5G9       0.110000
     30 H8          -0.1860     1.8280    -1.2390 ha         1 5G9       0.113000
     31 H9           3.1380    -0.0000     1.1830 ha         1 5G9       0.128000
     32 H10         -2.6540     0.0000     0.2050 ha         1 5G9       0.128000
     33 H11         -3.8340     0.0000     2.3690 ha         1 5G9       0.115000
     34 Cl          -2.8060    -1.2500    -5.1050 cl         1 5G9      -0.034400
@<TRIPOS>BOND
     1     1     4 ar  
     2     1    19 ar  
     3     2     6 1   
     4     2    23 1   
     5     2    24 1   
     6     3    21 ar  
     7     3    22 ar  
     8     3    25 1   
     9     4     5 1   
    10     4    17 ar  
    11     5     7 2   
    12     5    16 1   
    13     6    15 2   
    14     6    16 1   
    15     7    14 1   
    16     7    15 1   
    17     8    11 ar  
    18     8    14 ar  
    19     8    26 1   
    20     9    12 ar  
    21     9    13 ar  
    22     9    27 1   
    23    10    17 ar  
    24    10    18 ar  
    25    10    28 1   
    26    11    12 ar  
    27    11    34 1   
    28    12    29 1   
    29    13    14 ar  
    30    13    30 1   
    31    17    31 1   
    32    18    19 ar  
    33    18    22 ar  
    34    19    20 ar  
    35    20    21 ar  
    36    20    32 1   
    37    21    33 1   
@<TRIPOS>SUBSTRUCTURE
     1 5G9         1 TEMP              0 ****  ****    0 ROOT
