@<TRIPOS>MOLECULE
molecule
   34    37     1     0     0
SMALL
bcc


@<TRIPOS>ATOM
      1 N1           0.0000     0.0000     0.0000 nb         1 5G9      -0.671000
      2 N3           4.6540    -0.1080    -4.0910 nv         1 5G9      -1.030500
      3 C4          -2.0220    -0.0000     3.5240 ca         1 5G9       0.430200
      4 C5           1.3230     0.0000     0.0000 ca         1 5G9       0.528800
      5 C6           2.0450     0.0000    -1.2810 cc         1 5G9      -0.214900
      6 C7           3.6100    -0.0510    -3.1880 cc         1 5G9       0.710300
      7 C8           1.4830     0.1360    -2.5270 cd         1 5G9       0.476800
      8 C10         -0.6290    -0.4600    -3.7090 ca         1 5G9      -0.082000
      9 C13         -2.0470     1.3840    -2.1960 ca         1 5G9      -0.146000
     10 C15          1.3980    -0.0010     2.3960 ca         1 5G9      -0.120300
     11 C11         -1.9860    -0.2980    -3.9080 ca         1 5G9       0.012400
     12 C12         -2.6930     0.6220    -3.1530 ca         1 5G9      -0.113000
     13 C14         -0.6910     1.2310    -1.9890 ca         1 5G9      -0.049000
     14 C9           0.0270     0.3050    -2.7460 ca         1 5G9      -0.110500
     15 N2           2.3640     0.1020    -3.5130 nd         1 5G9      -0.691000
     16 S            3.7860    -0.1650    -1.4930 ss         1 5G9      -0.216300
     17 C16          2.0550     0.0000     1.2050 ca         1 5G9      -0.240300
     18 C           -0.0150    -0.0010     2.3860 ca         1 5G9       0.297300
     19 C1          -0.6910    -0.0010     1.1420 ca         1 5G9       0.304300
     20 C2          -2.1010    -0.0000     1.1360 ca         1 5G9      -0.127300
     21 C3          -2.7510     0.0000     2.3390 ca         1 5G9      -0.249300
     22 N           -0.7090    -0.0000     3.5250 nb         1 5G9      -0.674000
     23 H1           4.9470    -0.9910    -4.4610 hn         1 5G9       0.446800
     24 H2           5.1270     0.7310    -4.3620 hn         1 5G9       0.446800
     25 H3          -2.5500     0.0000     4.4690 h4         1 5G9       0.026100
     26 H4          -0.0920    -1.2320    -4.2460 ha         1 5G9       0.152000
     27 H5          -2.6060     2.1020    -1.6090 ha         1 5G9       0.133000
     28 H6           1.9450    -0.0010     3.3310 ha         1 5G9       0.158000
     29 H7          -3.7580     0.7460    -3.3120 ha         1 5G9       0.139000
     30 H8          -0.1860     1.8280    -1.2390 ha         1 5G9       0.140000
     31 H9           3.1380    -0.0000     1.1830 ha         1 5G9       0.147000
     32 H10         -2.6540     0.0000     0.2050 ha         1 5G9       0.159000
     33 H11         -3.8340     0.0000     2.3690 ha         1 5G9       0.143000
     34 Cl          -2.8060    -1.2500    -5.1050 cl         1 5G9      -0.115400
@<TRIPOS>BOND
     1     2     6 1
     2    16     6 1
     3    16     5 1
     4     6    15 2
     5     5     4 1
     6     5     7 2
     7    20    19 ar
     8    20    21 ar
     9    19     1 ar
    10    19    18 ar
    11     1     4 ar
    12    21     3 ar
    13     4    17 ar
    14    18    22 ar
    15    18    10 ar
    16    15     7 1
    17     3    22 ar
    18    17    10 ar
    19     7    14 1
    20     8    14 ar
    21     8    11 ar
    22    14    13 ar
    23    34    11 1
    24    11    12 ar
    25    13     9 ar
    26    12     9 ar
    27     2    23 1
    28     2    24 1
    29     3    25 1
    30     8    26 1
    31     9    27 1
    32    10    28 1
    33    12    29 1
    34    13    30 1
    35    17    31 1
    36    20    32 1
    37    21    33 1
@<TRIPOS>SUBSTRUCTURE
     1 5G9         1 TEMP              0 ****  ****    0 ROOT
