@<TRIPOS>MOLECULE
molecule
   34    37     1     0     0
SMALL
bcc


@<TRIPOS>ATOM
      1 N1           0.0000     0.0000     0.0000 nb         1 5GA      -0.676000
      2 N3           4.6510    -0.1120    -4.0930 nv         1 5GA      -1.028500
      3 C4          -2.0190     0.0010     3.5270 ca         1 5GA       0.431200
      4 C5           1.3240     0.0000     0.0000 ca         1 5GA       0.528800
      5 C6           2.0550     0.0000     1.2040 ca         1 5GA      -0.240300
      6 C7           1.4000     0.0010     2.3960 ca         1 5GA      -0.118300
      7 C8           2.0440    -0.0000    -1.2820 cc         1 5GA      -0.215900
      8 C10          1.4810     0.1340    -2.5280 cd         1 5GA       0.476800
      9 C13         -1.9880    -0.3020    -3.9060 ca         1 5GA      -0.029600
     10 C15         -2.0480     1.3800    -2.1900 ca         1 5GA      -0.185000
     11 Cl          -2.8070    -1.2500    -5.1080 cl         1 5GA      -0.091400
     12 C12         -0.6320    -0.4630    -3.7080 ca         1 5GA      -0.060000
     13 C14         -2.6970     0.6210    -3.1520 ca         1 5GA       0.148900
     14 F           -4.0230     0.7790    -3.3530 f          1 5GA      -0.130900
     15 C16         -0.6910     1.2300    -1.9890 ca         1 5GA      -0.025000
     16 C11          0.0260     0.3030    -2.7450 ca         1 5GA      -0.123500
     17 N2           2.3610     0.0990    -3.5140 nd         1 5GA      -0.695000
     18 C9           3.6070    -0.0540    -3.1900 cc         1 5GA       0.712300
     19 S            3.7850    -0.1660    -1.4940 ss         1 5GA      -0.213300
     20 C           -0.0130     0.0010     2.3860 ca         1 5GA       0.296300
     21 C1          -0.6910     0.0010     1.1430 ca         1 5GA       0.304300
     22 C2          -2.1000     0.0010     1.1400 ca         1 5GA      -0.129300
     23 C3          -2.7490     0.0010     2.3410 ca         1 5GA      -0.246300
     24 N           -0.7070     0.0010     3.5270 nb         1 5GA      -0.674000
     25 H1           4.8420    -0.9640    -4.5830 hn         1 5GA       0.447300
     26 H2           5.2260     0.6930    -4.2470 hn         1 5GA       0.447300
     27 H3          -2.5470     0.0010     4.4720 h4         1 5GA       0.027100
     28 H4           3.1380    -0.0000     1.1810 ha         1 5GA       0.147000
     29 H5           1.9480     0.0010     3.3300 ha         1 5GA       0.159000
     30 H6          -2.6060     2.1000    -1.6030 ha         1 5GA       0.148000
     31 H7          -0.0910    -1.2260    -4.2550 ha         1 5GA       0.159000
     32 H8          -0.1860     1.8240    -1.2370 ha         1 5GA       0.147000
     33 H9          -2.6540     0.0010     0.2090 ha         1 5GA       0.159000
     34 H10         -3.8320     0.0010     2.3720 ha         1 5GA       0.144000
@<TRIPOS>BOND
     1     2    18 1
     2    19    18 1
     3    19     7 1
     4    18    17 2
     5     7     4 1
     6     7     8 2
     7    17     8 1
     8     4     1 ar
     9     4     5 ar
    10     1    21 ar
    11     5     6 ar
    12    21    22 ar
    13    21    20 ar
    14     6    20 ar
    15    22    23 ar
    16    20    24 ar
    17    23     3 ar
    18    24     3 ar
    19     8    16 1
    20    12    16 ar
    21    12     9 ar
    22    16    15 ar
    23    11     9 1
    24     9    13 ar
    25    15    10 ar
    26    13    10 ar
    27    13    14 1
    28     2    25 1
    29     2    26 1
    30     3    27 1
    31     5    28 1
    32     6    29 1
    33    10    30 1
    34    12    31 1
    35    15    32 1
    36    22    33 1
    37    23    34 1
@<TRIPOS>SUBSTRUCTURE
     1 5GA         1 TEMP              0 ****  ****    0 ROOT
