@<TRIPOS>MOLECULE
5GA
   34    37     1     0     0
SMALL
bcc


@<TRIPOS>ATOM
      1 N1           0.0000     0.0000     0.0000 nb         1 5GA      -0.560000
      2 N3           4.6510    -0.1120    -4.0930 nv         1 5GA      -0.557500
      3 C4          -2.0190     0.0010     3.5270 ca         1 5GA       0.413200
      4 C5           1.3240     0.0000     0.0000 ca         1 5GA       0.486800
      5 C6           2.0550     0.0000     1.2040 ca         1 5GA      -0.210300
      6 C7           1.4000     0.0010     2.3960 ca         1 5GA      -0.097300
      7 C8           2.0440    -0.0000    -1.2820 cc         1 5GA      -0.166900
      8 C10          1.4810     0.1340    -2.5280 cd         1 5GA       0.428800
      9 C13         -1.9880    -0.3020    -3.9060 ca         1 5GA      -0.086600
     10 C15         -2.0480     1.3800    -2.1900 ca         1 5GA      -0.147000
     11 Cl          -2.8070    -1.2500    -5.1080 cl         1 5GA      -0.001400
     12 C12         -0.6320    -0.4630    -3.7080 ca         1 5GA      -0.042000
     13 C14         -2.6970     0.6210    -3.1520 ca         1 5GA       0.115900
     14 F           -4.0230     0.7790    -3.3530 f          1 5GA      -0.124900
     15 C16         -0.6910     1.2300    -1.9890 ca         1 5GA      -0.017000
     16 C11          0.0260     0.3030    -2.7450 ca         1 5GA      -0.125500
     17 N2           2.3610     0.0990    -3.5140 nd         1 5GA      -0.562000
     18 C9           3.6070    -0.0540    -3.1900 cc         1 5GA       0.553300
     19 S            3.7850    -0.1660    -1.4940 ss         1 5GA      -0.330300
     20 C           -0.0130     0.0010     2.3860 ca         1 5GA       0.258300
     21 C1          -0.6910     0.0010     1.1430 ca         1 5GA       0.262300
     22 C2          -2.1000     0.0010     1.1400 ca         1 5GA      -0.113300
     23 C3          -2.7490     0.0010     2.3410 ca         1 5GA      -0.212300
     24 N           -0.7070     0.0010     3.5270 nb         1 5GA      -0.560000
     25 H1           4.8420    -0.9640    -4.5830 hn         1 5GA       0.278300
     26 H2           5.2260     0.6930    -4.2470 hn         1 5GA       0.278300
     27 H3          -2.5470     0.0010     4.4720 h4         1 5GA      -0.018900
     28 H4           3.1380    -0.0000     1.1810 ha         1 5GA       0.128000
     29 H5           1.9480     0.0010     3.3300 ha         1 5GA       0.124000
     30 H6          -2.6060     2.1000    -1.6030 ha         1 5GA       0.120000
     31 H7          -0.0910    -1.2260    -4.2550 ha         1 5GA       0.125000
     32 H8          -0.1860     1.8240    -1.2370 ha         1 5GA       0.117000
     33 H9          -2.6540     0.0010     0.2090 ha         1 5GA       0.127000
     34 H10         -3.8320     0.0010     2.3720 ha         1 5GA       0.116000
@<TRIPOS>BOND
     1     1     4 ar  
     2     1    21 ar  
     3     2    18 1   
     4     2    25 1   
     5     2    26 1   
     6     3    23 ar  
     7     3    24 ar  
     8     3    27 1   
     9     4     5 ar  
    10     4     7 1   
    11     5     6 ar  
    12     5    28 1   
    13     6    20 ar  
    14     6    29 1   
    15     7     8 2   
    16     7    19 1   
    17     8    16 1   
    18     8    17 1   
    19     9    11 1   
    20     9    12 ar  
    21     9    13 ar  
    22    10    13 ar  
    23    10    15 ar  
    24    10    30 1   
    25    12    16 ar  
    26    12    31 1   
    27    13    14 1   
    28    15    16 ar  
    29    15    32 1   
    30    17    18 2   
    31    18    19 1   
    32    20    21 ar  
    33    20    24 ar  
    34    21    22 ar  
    35    22    23 ar  
    36    22    33 1   
    37    23    34 1   
@<TRIPOS>SUBSTRUCTURE
     1 5GA         1 TEMP              0 ****  ****    0 ROOT
