@<TRIPOS>MOLECULE
molecule
   37    40     1     0     0
SMALL
bcc


@<TRIPOS>ATOM
      1 N1           0.0000     0.0000     0.0000 nb         1 5GB      -0.667000
      2 N3           4.6530    -0.1010    -4.0920 nv         1 5GB      -1.026500
      3 C4          -2.0200    -0.0010     3.5260 ca         1 5GB       0.429200
      4 C5           1.3230     0.0000     0.0000 ca         1 5GB       0.531800
      5 C6           2.0450     0.0010    -1.2820 cc         1 5GB      -0.221900
      6 C7           3.6090    -0.0460    -3.1890 cc         1 5GB       0.712300
      7 C8           1.4810     0.1360    -2.5270 cd         1 5GB       0.486800
      8 C10         -0.6300    -0.4620    -3.7090 ca         1 5GB      -0.088000
      9 C13         -2.0500     1.3790    -2.1960 ca         1 5GB      -0.151000
     10 C15         -0.6940     1.2280    -1.9890 ca         1 5GB      -0.055000
     11 C17          2.0550     0.0000     1.2050 ca         1 5GB      -0.240300
     12 S            3.7860    -0.1630    -1.4940 ss         1 5GB      -0.224300
     13 N2           2.3630     0.1030    -3.5140 nd         1 5GB      -0.700000
     14 C9           0.0260     0.3040    -2.7460 ca         1 5GB      -0.118500
     15 C12         -2.6950     0.6170    -3.1540 ca         1 5GB      -0.117000
     16 C11         -1.9870    -0.3020    -3.9070 ca         1 5GB      -0.100300
     17 C14         -2.6970    -1.1290    -4.9470 c3         1 5GB      -0.044800
     18 C16          1.3980    -0.0010     2.3960 ca         1 5GB      -0.122300
     19 C           -0.0140    -0.0010     2.3870 ca         1 5GB       0.295300
     20 C1          -0.6910    -0.0010     1.1430 ca         1 5GB       0.304300
     21 C2          -2.1010    -0.0010     1.1390 ca         1 5GB      -0.127300
     22 C3          -2.7500    -0.0010     2.3400 ca         1 5GB      -0.251300
     23 N           -0.7090    -0.0020     3.5260 nb         1 5GB      -0.675000
     24 H1           5.1220    -0.9690    -4.2630 hn         1 5GB       0.446300
     25 H2           4.9510     0.7300    -4.5640 hn         1 5GB       0.446300
     26 H3          -2.5480    -0.0010     4.4720 h4         1 5GB       0.025100
     27 H4          -0.0760    -1.1820    -4.3000 ha         1 5GB       0.140000
     28 H5          -2.6100     2.0970    -1.6090 ha         1 5GB       0.126000
     29 H6          -0.1900     1.8250    -1.2390 ha         1 5GB       0.135000
     30 H7           3.1380    -0.0000     1.1820 ha         1 5GB       0.146000
     31 H8          -3.7590     0.7390    -3.3130 ha         1 5GB       0.125000
     32 H9          -2.4530    -0.7550    -5.9340 hc         1 5GB       0.041033
     33 H10         -2.3820    -2.1620    -4.8640 hc         1 5GB       0.041033
     34 H11         -3.7670    -1.0640    -4.7900 hc         1 5GB       0.041033
     35 H12          1.9460    -0.0010     3.3310 ha         1 5GB       0.157000
     36 H13         -2.6540    -0.0010     0.2070 ha         1 5GB       0.160000
     37 H14         -3.8330     0.0000     2.3700 ha         1 5GB       0.142000
@<TRIPOS>BOND
     1     2     6 1   
     2    12     6 1   
     3    12     5 1   
     4     6    13 2   
     5     5     4 1   
     6     5     7 2   
     7    13     7 1   
     8     4     1 ar  
     9     4    11 ar  
    10     1    20 ar  
    11    21    20 ar  
    12    21    22 ar  
    13    20    19 ar  
    14    11    18 ar  
    15    22     3 ar  
    16    19    18 ar  
    17    19    23 ar  
    18     3    23 ar  
    19     7    14 1   
    20     8    14 ar  
    21     8    16 ar  
    22    14    10 ar  
    23    17    16 1   
    24    16    15 ar  
    25    10     9 ar  
    26    15     9 ar  
    27     2    24 1   
    28     2    25 1   
    29     3    26 1   
    30     8    27 1   
    31     9    28 1   
    32    10    29 1   
    33    11    30 1   
    34    15    31 1   
    35    17    32 1   
    36    17    33 1   
    37    17    34 1   
    38    18    35 1   
    39    21    36 1   
    40    22    37 1   
@<TRIPOS>SUBSTRUCTURE
     1 5GB         1 TEMP              0 ****  ****    0 ROOT
