@<TRIPOS>MOLECULE
5GC
   27    27     1     0     0
SMALL
bcc


@<TRIPOS>ATOM
      1 C4           0.0000     0.0000     0.0000 cc         1 5GC       0.582200
      2 C5           1.8190     0.0000     1.2960 cd         1 5GC       0.001600
      3 C6           3.3210     0.0010     3.6580 c3         1 5GC       0.080000
      4 N1           0.7110     0.0090     2.0830 na         1 5GC       0.456400
      5 N2          -0.8200     0.0000    -1.1340 nv         1 5GC      -0.541500
      6 O1           1.6470    -0.6060    -2.4360 o          1 5GC      -0.584800
      7 O            3.6460    -0.6060    -0.9780 o          1 5GC      -0.584800
      8 C1           2.7070     1.7560    -1.7910 c3         1 5GC      -0.007900
      9 C2           3.3800     2.4310    -0.5930 c3         1 5GC       0.023400
     10 C            3.6050     1.8900    -3.0220 c3         1 5GC       0.023400
     11 C3           1.4020     0.0000     0.0000 cc         1 5GC      -0.376800
     12 S1           3.4910     0.0010     1.8530 ss         1 5GC      -0.228000
     13 N           -0.4120     0.0060     1.2460 nd         1 5GC      -0.747800
     14 H1           2.7920     0.8930     3.9710 h1         1 5GC       0.036033
     15 H2           4.3030    -0.0160     4.1140 h1         1 5GC       0.036033
     16 H3           2.7640    -0.8750     3.9680 h1         1 5GC       0.036033
     17 H4           0.6990     0.0130     3.0840 hn         1 5GC       0.149700
     18 H5          -1.7880     0.2400    -1.0510 hn         1 5GC       0.291300
     19 H6          -0.4480    -0.2780    -2.0210 hn         1 5GC       0.291300
     20 H7           1.7490     2.2250    -1.9770 h1         1 5GC       0.066700
     21 H8           2.6470     2.5980     0.1860 hc         1 5GC       0.015867
     22 H9           3.8010     3.3800    -0.9030 hc         1 5GC       0.015867
     23 H10          4.1700     1.7920    -0.2160 hc         1 5GC       0.015867
     24 H11          3.1560     1.3630    -3.8560 hc         1 5GC       0.015867
     25 H12          3.7180     2.9370    -3.2750 hc         1 5GC       0.015867
     26 H13          4.5780     1.4630    -2.8080 hc         1 5GC       0.015867
     27 S            2.4410    -0.0010    -1.4240 sy         1 5GC       0.901300
@<TRIPOS>BOND
     1     1     5 1   
     2     1    11 1   
     3     1    13 2   
     4     2     4 1   
     5     2    11 2   
     6     2    12 1   
     7     3    12 1   
     8     3    14 1   
     9     3    15 1   
    10     3    16 1   
    11     4    13 1   
    12     4    17 1   
    13     5    18 1   
    14     5    19 1   
    15     6    27 2   
    16     7    27 2   
    17     8     9 1   
    18     8    10 1   
    19     8    20 1   
    20     8    27 1   
    21     9    21 1   
    22     9    22 1   
    23     9    23 1   
    24    10    24 1   
    25    10    25 1   
    26    10    26 1   
    27    11    27 1   
@<TRIPOS>SUBSTRUCTURE
     1 5GC         1 TEMP              0 ****  ****    0 ROOT
