@<TRIPOS>MOLECULE
molecule
   60    63     1     0     0
SMALL
bcc


@<TRIPOS>ATOM
      1 C3           0.0000     0.0000     0.0000 ca         1 5GD       0.269400
      2 C5          -2.1600     0.0050     1.2030 c          1 5GD       0.716100
      3 C2           1.3950     0.0000     0.0000 ca         1 5GD      -0.201000
      4 C1           2.0830     0.0000     1.2010 ca         1 5GD       0.214100
      5 C8          -4.1150    -0.0260    -2.4940 ca         1 5GD      -0.085000
      6 C12         -5.0060     1.2370    -6.6550 c3         1 5GD       0.146400
      7 C9          -4.7680    -0.0320    -3.7070 ca         1 5GD      -0.103300
      8 C11         -4.0380    -0.0260    -4.8900 ca         1 5GD       0.130100
      9 C10         -6.2740    -0.0460    -3.7520 c3         1 5GD      -0.043800
     10 C13         -5.7260     1.0290    -7.9890 c3         1 5GD       0.158800
     11 C14         -6.8310    -1.0200    -7.3070 c3         1 5GD       0.151300
     12 C20         -1.9890    -0.0080    -3.6460 ca         1 5GD      -0.085000
     13 C21          0.0170     0.0110     2.4400 ca         1 5GD       0.251100
     14 C17         -7.8460     0.3710    -8.9750 c3         1 5GD       0.151300
     15 C18         -2.6490    -0.0140    -4.8550 ca         1 5GD      -0.103300
     16 O1          -2.8120     0.0100     2.2310 o          1 5GD      -0.608500
     17 C4          -0.6950     0.0050     1.2330 ca         1 5GD      -0.277600
     18 O3          -0.6450     0.0100     3.6240 os         1 5GD      -0.284900
     19 C23          1.4000    -0.0010     2.4140 ca         1 5GD      -0.351000
     20 O            3.4400    -0.0010     1.1960 os         1 5GD      -0.320900
     21 C            4.0930    -0.0010     2.4670 c3         1 5GD       0.127700
     22 N           -2.7620    -0.0010    -0.0090 ns         1 5GD      -0.477400
     23 C6          -2.0150    -0.0000    -1.1560 cc         1 5GD       0.574500
     24 N1          -0.7070    -0.0000    -1.1550 nd         1 5GD      -0.658100
     25 C7          -2.7190    -0.0080    -2.4540 ca         1 5GD      -0.155900
     26 N2          -7.0190     0.3740    -7.7500 n3         1 5GD      -0.719600
     27 C16         -8.6460    -0.9600    -8.9080 c3         1 5GD      -0.098400
     28 C15         -7.6000    -1.9240    -8.2920 c3         1 5GD      -0.098400
     29 H1           1.9390     0.0010    -0.9370 ha         1 5GD       0.162000
     30 H2          -4.6850    -0.0280    -1.5720 ha         1 5GD       0.148000
     31 H3          -5.6500     1.7850    -5.9790 h1         1 5GD       0.038700
     32 H4          -4.0950     1.7990    -6.8210 h1         1 5GD       0.038700
     33 H5          -6.6270     0.8290    -4.2830 hc         1 5GD       0.049200
     34 H6          -6.6110    -0.9400    -4.2620 hc         1 5GD       0.049200
     35 H7          -6.6650    -0.0380    -2.7410 hc         1 5GD       0.049200
     36 H8          -5.8900     1.9890    -8.4650 h1         1 5GD       0.044700
     37 H9          -5.1190     0.4060    -8.6340 h1         1 5GD       0.044700
     38 H11         -5.7770    -1.2710    -7.3230 h1         1 5GD       0.049450
     39 H15         -0.9060     0.0040    -3.6200 ha         1 5GD       0.148000
     40 H16         -7.2140     0.3860    -9.8550 h1         1 5GD       0.049450
     41 H17         -8.5220     1.2170    -8.9730 h1         1 5GD       0.049450
     42 H21          1.9550    -0.0010     3.3440 ha         1 5GD       0.144000
     43 H22          5.1670    -0.0010     2.3220 h1         1 5GD       0.043367
     44 H23          3.8040    -0.8850     3.0220 h1         1 5GD       0.043367
     45 H24          3.8040     0.8840     3.0220 h1         1 5GD       0.043367
     46 H25         -3.7610    -0.0010    -0.0670 hn         1 5GD       0.338500
     47 H27         -9.5080    -0.8600    -8.2590 hc         1 5GD       0.049700
     48 H28         -8.9340    -1.2860    -9.9000 hc         1 5GD       0.049700
     49 H29         -6.9350    -2.3050    -9.0580 hc         1 5GD       0.049700
     50 H30         -8.0910    -2.7320    -7.7640 hc         1 5GD       0.049700
     51 O2          -4.6860    -0.0330    -6.0840 os         1 5GD      -0.356900
     52 C19         -1.8630    -0.0080    -6.1410 c3         1 5GD      -0.043800
     53 C22          0.1500    -0.0020     4.8110 c3         1 5GD       0.123700
     54 H10         -7.2290    -1.1440    -6.3070 h1         1 5GD       0.049450
     55 H12         -2.3160    -0.6960    -6.8440 hc         1 5GD       0.049200
     56 H13         -0.8430    -0.3130    -5.9420 hc         1 5GD       0.049200
     57 H14         -1.8660     0.9910    -6.5610 hc         1 5GD       0.049200
     58 H18          0.7820     0.8780     4.8320 h1         1 5GD       0.042700
     59 H19         -0.4970    -0.0030     5.6800 h1         1 5GD       0.042700
     60 H20          0.7700    -0.8910     4.8220 h1         1 5GD       0.042700
@<TRIPOS>BOND
     1    53    18 1   
     2    18    13 1   
     3    16     2 2   
     4    13    19 ar  
     5    13    17 ar  
     6     2    17 1   
     7     2    22 1   
     8    19     4 ar  
     9    17     1 ar  
    10    22    23 1   
    11     4    20 1   
    12     4     3 ar  
    13     1     3 ar  
    14     1    24 1   
    15    23    24 2   
    16    23    25 1   
    17    20    21 1   
    18    12    25 ar  
    19    12    15 ar  
    20    52    15 1   
    21    25     5 ar  
    22    15     8 ar  
    23     5     7 ar  
    24     8     7 ar  
    25     8    51 1   
    26     7     9 1   
    27    51     6 1   
    28    14    27 1   
    29    14    26 1   
    30     6    10 1   
    31    27    28 1   
    32    26    10 1   
    33    26    11 1   
    34    28    11 1   
    35     3    29 1   
    36     5    30 1   
    37     6    31 1   
    38     6    32 1   
    39     9    33 1   
    40     9    34 1   
    41     9    35 1   
    42    10    36 1   
    43    10    37 1   
    44    11    54 1   
    45    11    38 1   
    46    52    55 1   
    47    52    56 1   
    48    52    57 1   
    49    12    39 1   
    50    14    40 1   
    51    14    41 1   
    52    53    58 1   
    53    53    59 1   
    54    53    60 1   
    55    19    42 1   
    56    21    43 1   
    57    21    44 1   
    58    21    45 1   
    59    22    46 1   
    60    27    47 1   
    61    27    48 1   
    62    28    49 1   
    63    28    50 1   
@<TRIPOS>SUBSTRUCTURE
     1 5GD         1 TEMP              0 ****  ****    0 ROOT
