@<TRIPOS>MOLECULE
5GH
   52    54     1     0     0
SMALL
bcc


@<TRIPOS>ATOM
      1 N1           0.0000     0.0000     0.0000 ns         1 5GH       0.001000
      2 N            3.9580    -3.1570     1.2960 ns         1 5GH       0.030000
      3 C10          3.5230    -1.8050     0.9370 c3         1 5GH      -0.101000
      4 C11          2.3380    -1.3990     1.8170 c3         1 5GH      -0.109000
      5 C12          1.8650     0.0000     1.4210 c3         1 5GH      -0.130000
      6 C13          1.3440     0.0000     0.0000 c2         1 5GH       0.237000
      7 O1           2.0380     0.0010    -0.9940 o          1 5GH      -0.403000
      8 C25         -0.5330    -0.0100     1.3670 c3         1 5GH      -0.076000
      9 C26          0.6450     0.4130     2.2720 c3         1 5GH      -0.107000
     10 C14          4.6600    -0.8390     1.1480 c2         1 5GH       0.083000
     11 C15          5.6390    -0.7560     0.2500 c2         1 5GH      -0.428000
     12 H1          -0.5490    -0.1160    -0.8290 hn         1 5GH       0.110000
     13 H2           4.6590    -3.2880     1.9970 hn         1 5GH       0.081000
     14 H5           3.2220    -1.7860    -0.1030 h1         1 5GH       0.162000
     15 H6           1.5290    -2.1070     1.6810 hc         1 5GH       0.068000
     16 H7           2.6440    -1.3960     2.8560 hc         1 5GH       0.068000
     17 H8           2.6640     0.7230     1.5300 hc         1 5GH       0.092000
     18 H9          -0.8670    -1.0060     1.6310 h1         1 5GH       0.056500
     19 H10         -1.3460     0.7010     1.4570 h1         1 5GH       0.056500
     20 H11          0.6380     1.4840     2.4380 hc         1 5GH       0.069000
     21 H12          0.6270    -0.1320     3.2080 hc         1 5GH       0.069000
     22 H13          4.9810    -0.8450     2.1830 ha         1 5GH       0.090000
     23 H15          5.0260    -0.6710    -0.6390 DU         1 5GH       0.136000
     24 C2           3.9040    -5.6110     0.9950 c3         1 5GH      -0.121000
     25 C3           3.0740    -6.6380     0.2210 c3         1 5GH      -0.042000
     26 C4           3.6010    -8.0220     0.4980 ca         1 5GH      -0.087000
     27 C5           3.0960    -8.7550     1.5560 ca         1 5GH      -0.098500
     28 C6           3.5800   -10.0250     1.8100 ca         1 5GH      -0.100000
     29 C7           4.5680   -10.5620     1.0070 ca         1 5GH      -0.106000
     30 C8           5.0730    -9.8290    -0.0520 ca         1 5GH      -0.100000
     31 C9           4.5860    -8.5610    -0.3090 ca         1 5GH      -0.098500
     32 O2           2.4310    -4.0760    -0.0250 o          1 5GH      -0.395000
     33 C16          5.6880    -1.7030    -0.8710 c3         1 5GH       0.556000
     34 O3           6.7040    -1.6490    -1.7550 os         1 5GH      -0.240000
     35 C18          6.6890    -2.6150    -2.8390 c3         1 5GH       0.077000
     36 C19          7.9120    -2.4010    -3.7320 c3         1 5GH      -0.121000
     37 O4           4.8130    -2.5360    -1.0030 o          1 5GH      -0.461000
     38 H3           4.9390    -5.6730     0.6820 hc         1 5GH       0.068500
     39 H4           3.8360    -5.8180     2.0570 hc         1 5GH       0.068500
     40 H14          2.0390    -6.5760     0.5350 hc         1 5GH       0.073500
     41 H16          3.1430    -6.4310    -0.8400 hc         1 5GH       0.073500
     42 H17          2.3220    -8.3340     2.1860 ha         1 5GH       0.106000
     43 H18          3.1850   -10.5990     2.6390 ha         1 5GH       0.101500
     44 H19          4.9480   -11.5560     1.2070 ha         1 5GH       0.101000
     45 H20          5.8460   -10.2510    -0.6830 ha         1 5GH       0.101500
     46 H21          4.9810    -7.9870    -1.1380 ha         1 5GH       0.106000
     47 H22          5.7860    -2.4860    -3.4250 h1         1 5GH       0.049000
     48 H23          6.7120    -3.6180    -2.4300 h1         1 5GH       0.049000
     49 H24          8.8140    -2.5450    -3.1500 hc         1 5GH       0.051000
     50 H25          7.8960    -1.3930    -4.1300 hc         1 5GH       0.051000
     51 H26          7.8920    -3.1120    -4.5490 hc         1 5GH       0.051000
     52 C1           3.3770    -4.2270     0.7180 c2         1 5GH       0.231000
@<TRIPOS>BOND
     1     1     6 1   
     2     1     8 1   
     3     1    12 1   
     4     2     3 1   
     5     2    13 1   
     6     2    52 1   
     7     3     4 1   
     8     3    10 1   
     9     3    14 1   
    10     4     5 1   
    11     4    15 1   
    12     4    16 1   
    13     5     6 1   
    14     5     9 1   
    15     5    17 1   
    16     6     7 1   
    17     8     9 1   
    18     8    18 1   
    19     8    19 1   
    20     9    20 1   
    21     9    21 1   
    22    10    11 1   
    23    10    22 1   
    24    11    23 1   
    25    11    33 1   
    26    23    33 1   
    27    24    25 1   
    28    24    38 1   
    29    24    39 1   
    30    24    52 1   
    31    25    26 1   
    32    25    40 1   
    33    25    41 1   
    34    26    27 1   
    35    26    31 1   
    36    27    28 1   
    37    27    42 1   
    38    28    29 1   
    39    28    43 1   
    40    29    30 1   
    41    29    44 1   
    42    30    31 1   
    43    30    45 1   
    44    31    46 1   
    45    32    52 1   
    46    33    34 1   
    47    33    37 1   
    48    34    35 1   
    49    35    36 1   
    50    35    47 1   
    51    35    48 1   
    52    36    49 1   
    53    36    50 1   
    54    36    51 1   
@<TRIPOS>SUBSTRUCTURE
     1 5GH         1 TEMP              0 ****  ****    0 ROOT
