@<TRIPOS>MOLECULE
molecule
   52    53     1     0     0
SMALL
bcc


@<TRIPOS>ATOM
      1 N1           0.0000     0.0000     0.0000 ns         1 5GH      -0.584900
      2 N            3.9580    -3.1570     1.2960 ns         1 5GH      -0.570900
      3 C10          3.5230    -1.8050     0.9370 c3         1 5GH       0.138900
      4 C11          2.3380    -1.3990     1.8170 c3         1 5GH      -0.087400
      5 C12          1.8650     0.0000     1.4210 c3         1 5GH      -0.161700
      6 C13          1.3440     0.0000     0.0000 c          1 5GH       0.707500
      7 O1           2.0380     0.0010    -0.9940 o          1 5GH      -0.625500
      8 C25         -0.5330    -0.0100     1.3670 c3         1 5GH       0.096000
      9 C26          0.6450     0.4130     2.2720 c3         1 5GH      -0.094400
     10 C14          4.6600    -0.8390     1.1480 c2         1 5GH      -0.110200
     11 C15          5.6390    -0.7560     0.2500 ce         1 5GH      -0.190200
     12 H1          -0.5490    -0.1160    -0.8290 hn         1 5GH       0.339500
     13 H2           4.6600    -3.2880     1.9970 hn         1 5GH       0.305500
     14 H5           3.2220    -1.7860    -0.1030 h1         1 5GH       0.143700
     15 H6           2.6440    -1.3960     2.8560 hc         1 5GH       0.054700
     16 H7           1.5290    -2.1070     1.6810 hc         1 5GH       0.054700
     17 H8           2.6640     0.7230     1.5300 hc         1 5GH       0.077700
     18 H9          -1.3460     0.7010     1.4570 h1         1 5GH       0.045700
     19 H10         -0.8670    -1.0060     1.6310 h1         1 5GH       0.045700
     20 H11          0.6370     1.4840     2.4380 hc         1 5GH       0.058200
     21 H12          0.6270    -0.1320     3.2080 hc         1 5GH       0.058200
     22 H13          4.6800    -0.2110     2.0310 ha         1 5GH       0.134000
     23 H15          6.4550    -0.0610     0.4040 ha         1 5GH       0.144000
     24 C2           3.9040    -5.6110     0.9950 c3         1 5GH      -0.152400
     25 C3           3.0740    -6.6380     0.2210 c3         1 5GH      -0.020100
     26 C4           3.6010    -8.0220     0.4980 ca         1 5GH      -0.086300
     27 C5           3.0960    -8.7550     1.5560 ca         1 5GH      -0.125500
     28 C6           3.5800   -10.0250     1.8100 ca         1 5GH      -0.127000
     29 C7           4.5680   -10.5620     1.0070 ca         1 5GH      -0.132000
     30 C8           5.0730    -9.8290    -0.0520 ca         1 5GH      -0.127000
     31 C9           4.5860    -8.5610    -0.3090 ca         1 5GH      -0.125500
     32 O2           2.4310    -4.0760    -0.0250 o          1 5GH      -0.601100
     33 C16          5.6880    -1.7030    -0.8710 c          1 5GH       0.631300
     34 O3           6.7040    -1.6490    -1.7550 os         1 5GH      -0.430900
     35 C18          6.6890    -2.6150    -2.8390 c3         1 5GH       0.147400
     36 C19          7.9120    -2.4010    -3.7320 c3         1 5GH      -0.096100
     37 O4           4.8130    -2.5360    -1.0030 o          1 5GH      -0.536000
     38 H3           4.9390    -5.6730     0.6820 hc         1 5GH       0.059700
     39 H4           3.8360    -5.8180     2.0570 hc         1 5GH       0.059700
     40 H14          3.1430    -6.4310    -0.8400 hc         1 5GH       0.066200
     41 H16          2.0390    -6.5760     0.5350 hc         1 5GH       0.066200
     42 H17          2.3220    -8.3340     2.1860 ha         1 5GH       0.130500
     43 H18          3.1850   -10.5990     2.6390 ha         1 5GH       0.128000
     44 H19          4.9480   -11.5560     1.2070 ha         1 5GH       0.127000
     45 H20          5.8460   -10.2510    -0.6830 ha         1 5GH       0.128000
     46 H21          4.9810    -7.9870    -1.1380 ha         1 5GH       0.130500
     47 H22          6.7120    -3.6180    -2.4300 h1         1 5GH       0.049700
     48 H23          5.7860    -2.4860    -3.4250 h1         1 5GH       0.049700
     49 H24          8.8140    -2.5300    -3.1470 hc         1 5GH       0.046367
     50 H25          7.8880    -1.3980    -4.1420 hc         1 5GH       0.046367
     51 H26          7.8990    -3.1210    -4.5410 hc         1 5GH       0.046367
     52 C1           3.3770    -4.2270     0.7180 c          1 5GH       0.669100
@<TRIPOS>BOND
     1    11    10 2
     2    10     3 1
     3     3     4 1
     4     3     2 1
     5     4     5 1
     6     7     6 2
     7     5     6 1
     8     5     9 1
     9     6     1 1
    10     9     8 1
    11     1     8 1
    12     1    12 1
    13     2    13 1
    14     3    14 1
    15     4    15 1
    16     4    16 1
    17     5    17 1
    18     8    18 1
    19     8    19 1
    20     9    20 1
    21     9    21 1
    22    10    22 1
    23    11    23 1
    24     2    52 1
    25    52    24 1
    26    24    25 1
    27    25    26 1
    28    26    27 ar
    29    27    28 ar
    30    28    29 ar
    31    29    30 ar
    32    30    31 ar
    33    31    26 ar
    34    52    32 2
    35    11    33 1
    36    33    34 1
    37    34    35 1
    38    35    36 1
    39    33    37 2
    40    24    38 1
    41    24    39 1
    42    25    40 1
    43    25    41 1
    44    27    42 1
    45    28    43 1
    46    29    44 1
    47    30    45 1
    48    31    46 1
    49    35    47 1
    50    35    48 1
    51    36    49 1
    52    36    50 1
    53    36    51 1
@<TRIPOS>SUBSTRUCTURE
     1 5GH         1 TEMP              0 ****  ****    0 ROOT
