@<TRIPOS>MOLECULE
molecule
   37    39     1     0     0
SMALL
bcc


@<TRIPOS>ATOM
      1 C4           0.0000     0.0000     0.0000 ca         1 5GJ      -0.124500
      2 C5           1.3830     0.0000     0.0000 ca         1 5GJ      -0.125000
      3 C6          -2.1980     0.0020     1.1970 cx         1 5GJ      -0.171700
      4 C7          -2.9040    -0.1380     2.5470 cx         1 5GJ      -0.107400
      5 C8          -2.9050    -1.3060     1.5590 cx         1 5GJ      -0.107400
      6 C9          -2.8480     0.8800     0.1590 c          1 5GJ       0.702100
      7 C10         -1.8680     2.8330     1.2610 c3         1 5GJ       0.097000
      8 C11         -2.6920     3.8630     2.0420 c3         1 5GJ      -0.099400
      9 C12         -3.3150     4.8600     1.0630 c3         1 5GJ      -0.090400
     10 C13         -4.2490     4.1200     0.1030 c3         1 5GJ       0.129100
     11 C14         -3.4430     3.0940    -0.6990 c3         1 5GJ       0.093000
     12 O           -3.4820     0.3820    -0.7460 o          1 5GJ      -0.605100
     13 C3          -0.6920     0.0010     1.1970 ca         1 5GJ      -0.050300
     14 C2          -0.0000     0.0010     2.3950 ca         1 5GJ      -0.124500
     15 C1           1.3820     0.0010     2.3950 ca         1 5GJ      -0.125000
     16 C            2.0730     0.0000     1.1970 ca         1 5GJ      -0.129000
     17 N           -2.7240     2.2200     0.2380 n          1 5GJ      -0.483800
     18 O1          -4.8540     5.0560    -0.7910 oh         1 5GJ      -0.601800
     19 H1          -0.5420    -0.0000    -0.9380 ha         1 5GJ       0.138500
     20 H2           1.9250    -0.0010    -0.9380 ha         1 5GJ       0.132500
     21 H3          -2.2540    -0.2530     3.4050 hc         1 5GJ       0.084700
     22 H4          -3.8430     0.3940     2.6410 hc         1 5GJ       0.084700
     23 H5          -2.2540    -2.1340     1.8140 hc         1 5GJ       0.084700
     24 H6          -3.8440    -1.4870     1.0490 hc         1 5GJ       0.084700
     25 H8          -1.5080     2.0680     1.9390 h1         1 5GJ       0.059700
     26 H9          -2.0480     4.3910     2.7340 hc         1 5GJ       0.049700
     27 H10         -3.4780     3.3550     2.5880 hc         1 5GJ       0.049700
     28 H11         -3.8810     5.6000     1.6160 hc         1 5GJ       0.054200
     29 H12         -2.5300     5.3470     0.4980 hc         1 5GJ       0.054200
     30 H13         -5.0160     3.6080     0.6710 h1         1 5GJ       0.037700
     31 H14         -4.1150     2.5000    -1.3070 h1         1 5GJ       0.071200
     32 H15         -2.7310     3.6090    -1.3330 h1         1 5GJ       0.071200
     33 H16         -0.5420     0.0020     3.3330 ha         1 5GJ       0.138500
     34 H17          1.9230     0.0010     3.3330 ha         1 5GJ       0.132500
     35 H18          3.1570    -0.0000     1.1980 ha         1 5GJ       0.130000
     36 H19         -5.7920     4.9730    -0.7460 ho         1 5GJ       0.405000
     37 H7          -1.0300     3.3270     0.7840 h1         1 5GJ       0.059700
@<TRIPOS>BOND
     1    18    10 1
     2     9    10 1
     3     9     8 1
     4    10    11 1
     5     8     7 1
     6    11    17 1
     7     7    17 1
     8    17     6 1
     9     6    12 2
    10     6     3 1
    11     1     2 ar
    12     1    13 ar
    13     2    16 ar
    14     3    13 1
    15     3     4 1
    16     3     5 1
    17    13    14 ar
    18     4     5 1
    19    16    15 ar
    20    14    15 ar
    21     1    19 1
    22     2    20 1
    23     4    21 1
    24     4    22 1
    25     5    23 1
    26     5    24 1
    27     7    37 1
    28     7    25 1
    29     8    26 1
    30     8    27 1
    31     9    28 1
    32     9    29 1
    33    10    30 1
    34    11    31 1
    35    11    32 1
    36    14    33 1
    37    15    34 1
    38    16    35 1
    39    18    36 1
@<TRIPOS>SUBSTRUCTURE
     1 5GJ         1 TEMP              0 ****  ****    0 ROOT
