@<TRIPOS>MOLECULE
5GL
   37    38     1     0     0
SMALL
bcc


@<TRIPOS>ATOM
      1 C4           0.0000     0.0000     0.0000 cc         1 5GL      -0.327800
      2 C5           1.4130     0.0000     0.0000 cc         1 5GL       0.590500
      3 C6           1.4110     0.0000     2.3090 c          1 5GL       0.699900
      4 N1           2.0700     0.0000     1.1530 nd         1 5GL      -0.611100
      5 C10         -0.9860    -0.0060    -1.1470 c3         1 5GL       0.060800
      6 C11         -2.3300    -0.4350    -0.5170 c3         1 5GL      -0.024400
      7 C12         -2.1500     0.0080     0.9520 c3         1 5GL       0.037800
      8 O            2.0360     0.0010     3.3570 o          1 5GL      -0.684500
      9 N            0.0660     0.0010     2.3410 n          1 5GL       0.106000
     10 C2          -0.6300     0.0020     3.6310 c3         1 5GL       0.004000
     11 C1          -0.8720     1.4450     4.0790 c3         1 5GL      -0.045400
     12 C           -1.6000     1.4450     5.4250 c3         1 5GL       0.012900
     13 S            2.2980    -0.0020    -1.5240 ss         1 5GL      -0.306300
     14 C3          -0.6550     0.0020     1.1820 cd         1 5GL      -0.093600
     15 H2          -1.0720     0.9860    -1.5730 hc         1 5GL       0.029200
     16 H3          -0.6800    -0.7220    -1.9000 hc         1 5GL       0.029200
     17 H4          -3.1470     0.1100    -0.9740 hc         1 5GL       0.026700
     18 H5          -2.4410    -1.5110    -0.5710 hc         1 5GL       0.026700
     19 H6          -2.5330     1.0130     1.0780 hc         1 5GL       0.031200
     20 H7          -2.6220    -0.7120     1.6090 hc         1 5GL       0.031200
     21 H8          -0.0240    -0.5080     4.3690 h1         1 5GL       0.046700
     22 H9          -1.5800    -0.5090     3.5290 h1         1 5GL       0.046700
     23 H10          0.0780     1.9550     4.1820 hc         1 5GL       0.024200
     24 H11         -1.4790     1.9550     3.3400 hc         1 5GL       0.024200
     25 H12         -1.0040     0.9140     6.1570 hc         1 5GL       0.004367
     26 H13         -1.7510     2.4660     5.7530 hc         1 5GL       0.004367
     27 H14         -2.5600     0.9540     5.3160 hc         1 5GL       0.004367
     28 C7           3.9960    -0.0030    -0.9000 c3         1 5GL       0.075400
     29 C8           4.2650    -1.3100    -0.1510 c3         1 5GL       0.001400
     30 C9           4.9700     0.1220    -2.0730 c3         1 5GL       0.001400
     31 H1           4.1340     0.8340    -0.2260 h1         1 5GL       0.066700
     32 H15          5.2610    -1.6640    -0.3880 hc         1 5GL       0.017867
     33 H16          3.5360    -2.0530    -0.4500 hc         1 5GL       0.017867
     34 H17          4.1870    -1.1370     0.9160 hc         1 5GL       0.017867
     35 H18          4.7660     1.0360    -2.6170 hc         1 5GL       0.017867
     36 H19          4.8490    -0.7270    -2.7350 hc         1 5GL       0.017867
     37 H20          5.9860     0.1440    -1.6980 hc         1 5GL       0.017867
@<TRIPOS>BOND
     1     1     2 1   
     2     1     5 1   
     3     1    14 2   
     4     2     4 2   
     5     2    13 1   
     6     3     4 1   
     7     3     8 2   
     8     3     9 1   
     9     5     6 1   
    10     5    15 1   
    11     5    16 1   
    12     6     7 1   
    13     6    17 1   
    14     6    18 1   
    15     7    14 1   
    16     7    19 1   
    17     7    20 1   
    18     9    10 1   
    19     9    14 1   
    20    10    11 1   
    21    10    21 1   
    22    10    22 1   
    23    11    12 1   
    24    11    23 1   
    25    11    24 1   
    26    12    25 1   
    27    12    26 1   
    28    12    27 1   
    29    13    28 1   
    30    28    29 1   
    31    28    30 1   
    32    28    31 1   
    33    29    32 1   
    34    29    33 1   
    35    29    34 1   
    36    30    35 1   
    37    30    36 1   
    38    30    37 1   
@<TRIPOS>SUBSTRUCTURE
     1 5GL         1 TEMP              0 ****  ****    0 ROOT
