@<TRIPOS>MOLECULE
molecule
   49    52     1     0     0
SMALL
bcc


@<TRIPOS>ATOM
      1 C11          0.0000     0.0000     0.0000 ca         1 5GN      -0.091000
      2 C6           3.4940    -0.0030    -1.1630 ca         1 5GN      -0.114000
      3 C8           3.5060    -0.0010     1.2330 ca         1 5GN      -0.117000
      4 C3           1.0660     1.4130    -2.9090 cc         1 5GN      -0.162700
      5 N2          -2.1030     9.6310    -4.5500 nb         1 5GN      -0.750500
      6 C10          1.4040     0.0000     0.0000 ca         1 5GN      -0.029000
      7 C1           0.1300     3.6530    -3.3210 cc         1 5GN       0.572300
      8 C7           4.1780    -0.0020     0.0510 ca         1 5GN      -0.116000
      9 N3          -0.5870    10.8570    -5.7950 nb         1 5GN      -0.750500
     10 C9           2.1000     0.0000     1.2350 ca         1 5GN      -0.027000
     11 N1           1.3040     3.4350    -3.8270 nd         1 5GN      -0.682000
     12 C2           1.8310     2.2420    -3.6220 cd         1 5GN       0.403200
     13 C5           2.1340    -0.0020    -1.2020 ca         1 5GN      -0.068300
     14 C12         -0.6730     0.0070     1.1850 ca         1 5GN      -0.011900
     15 C13          0.0110     0.0130     2.3990 ca         1 5GN      -0.110000
     16 C14          1.3720     0.0010     2.4360 ca         1 5GN      -0.108000
     17 S           -0.4240     2.2590    -2.4990 ss         1 5GN      -0.225300
     18 N           -0.5770     4.8440    -3.4340 ns         1 5GN      -0.530400
     19 C           -0.0450     5.8820    -4.1110 c          1 5GN       0.660100
     20 O            1.0500     5.7760    -4.6200 o          1 5GN      -0.512100
     21 C15         -0.8120     7.1730    -4.2330 c3         1 5GN      -0.110300
     22 S1           0.1600     8.3630    -5.1910 ss         1 5GN      -0.147400
     23 C16         -0.9410     9.7390    -5.1780 ca         1 5GN       0.775300
     24 C20         -1.3900    11.9070    -5.8050 ca         1 5GN       0.481100
     25 C21         -0.9810    13.1750    -6.5090 c3         1 5GN      -0.144900
     26 C19         -2.6130    11.8280    -5.1580 ca         1 5GN      -0.394600
     27 C17         -2.9520    10.6450    -4.5210 ca         1 5GN       0.481100
     28 C18         -4.2720    10.5150    -3.8050 c3         1 5GN      -0.144900
     29 H1          -0.5420    -0.1250    -0.9300 ha         1 5GN       0.146000
     30 H2           4.0540    -0.0040    -2.0910 ha         1 5GN       0.133000
     31 H3           4.0510    -0.0000     2.1700 ha         1 5GN       0.136000
     32 H4           0.5050    -0.5870    -2.4410 hc         1 5GN       0.063700
     33 H5           2.0530    -0.4360    -3.2840 hc         1 5GN       0.063700
     34 H6           5.2610    -0.0030     0.0540 ha         1 5GN       0.133000
     35 H7           2.8050     1.9590    -4.0020 h4         1 5GN       0.048100
     36 H8          -0.5480     0.0180     3.3270 ha         1 5GN       0.143000
     37 H9           1.8910     0.0060     3.3870 ha         1 5GN       0.140000
     38 H10         -1.4880     4.9260    -3.0280 hn         1 5GN       0.337500
     39 H11         -1.7540     6.9880    -4.7360 h1         1 5GN       0.094200
     40 H12         -1.0030     7.5750    -3.2450 h1         1 5GN       0.094200
     41 H13          0.0030    13.0450    -6.9430 hc         1 5GN       0.057367
     42 H14         -0.9560    13.9910    -5.7980 hc         1 5GN       0.057367
     43 H15         -1.6940    13.3990    -7.2920 hc         1 5GN       0.057367
     44 H16         -3.2900    12.6740    -5.1500 ha         1 5GN       0.146000
     45 H17         -5.0790    10.7410    -4.4910 hc         1 5GN       0.057367
     46 H18         -4.3010    11.2070    -2.9720 hc         1 5GN       0.057367
     47 H19         -4.3840     9.5020    -3.4360 hc         1 5GN       0.057367
     48 C4           1.4130    -0.0020    -2.5250 c3         1 5GN       0.052200
     49 Br          -2.5640     0.0080     1.1810 br         1 5GN      -0.100100
@<TRIPOS>BOND
     1    49    14 1   
     2    22    23 1   
     3    22    21 1   
     4     9    23 ar  
     5     9    24 ar  
     6    25    24 1   
     7    23     5 ar  
     8    21    19 1   
     9    24    26 ar  
    10    14    15 ar  
    11    14     1 ar  
    12    15    16 ar  
    13    20    19 2   
    14    19    18 1   
    15     1     6 ar  
    16     5    27 ar  
    17    26    27 ar  
    18    18     7 1   
    19    16    10 ar  
    20    17     7 1   
    21    17     4 1   
    22    27    28 1   
    23     7    11 2   
    24     6    10 ar  
    25     6    13 ar  
    26    10     3 ar  
    27    11    12 1   
    28     4    48 1   
    29     4    12 2   
    30    48    13 1   
    31    13     2 ar  
    32     3     8 ar  
    33     2     8 ar  
    34     1    29 1   
    35     2    30 1   
    36     3    31 1   
    37    48    32 1   
    38    48    33 1   
    39     8    34 1   
    40    12    35 1   
    41    15    36 1   
    42    16    37 1   
    43    18    38 1   
    44    21    39 1   
    45    21    40 1   
    46    25    41 1   
    47    25    42 1   
    48    25    43 1   
    49    26    44 1   
    50    28    45 1   
    51    28    46 1   
    52    28    47 1   
@<TRIPOS>SUBSTRUCTURE
     1 5GN         1 TEMP              0 ****  ****    0 ROOT
