@<TRIPOS>MOLECULE
5GN
   49    52     1     0     0
SMALL
bcc


@<TRIPOS>ATOM
      1 C11          0.0000     0.0000     0.0000 ca         1 5GN      -0.082000
      2 C6           3.4940    -0.0030    -1.1630 ca         1 5GN      -0.086000
      3 C8           3.5060    -0.0010     1.2330 ca         1 5GN      -0.086000
      4 C3           1.0660     1.4130    -2.9090 cc         1 5GN      -0.123700
      5 N2          -2.1030     9.6310    -4.5500 nb         1 5GN      -0.629000
      6 C10          1.4040     0.0000     0.0000 ca         1 5GN      -0.021000
      7 C1           0.1300     3.6530    -3.3210 cc         1 5GN       0.408300
      8 C7           4.1780    -0.0020     0.0510 ca         1 5GN      -0.092000
      9 N3          -0.5870    10.8570    -5.7950 nb         1 5GN      -0.629000
     10 C9           2.1000     0.0000     1.2350 ca         1 5GN      -0.032000
     11 N1           1.3040     3.4350    -3.8270 nd         1 5GN      -0.555000
     12 C2           1.8310     2.2420    -3.6220 cd         1 5GN       0.388200
     13 C5           2.1340    -0.0020    -1.2020 ca         1 5GN      -0.082300
     14 C12         -0.6730     0.0070     1.1850 ca         1 5GN       0.045100
     15 C13          0.0110     0.0130     2.3990 ca         1 5GN      -0.090000
     16 C14          1.3720     0.0010     2.4360 ca         1 5GN      -0.077000
     17 S           -0.4240     2.2590    -2.4990 ss         1 5GN      -0.321300
     18 N           -0.5770     4.8440    -3.4340 ns         1 5GN      -0.073400
     19 C           -0.0450     5.8820    -4.1110 c          1 5GN       0.552100
     20 O            1.0500     5.7760    -4.6200 o          1 5GN      -0.538100
     21 C15         -0.8120     7.1730    -4.2330 c3         1 5GN      -0.003300
     22 S1           0.1600     8.3630    -5.1910 ss         1 5GN      -0.305400
     23 C16         -0.9410     9.7390    -5.1780 ca         1 5GN       0.737300
     24 C20         -1.3900    11.9070    -5.8050 ca         1 5GN       0.431100
     25 C21         -0.9810    13.1750    -6.5090 c3         1 5GN      -0.042400
     26 C19         -2.6130    11.8280    -5.1580 ca         1 5GN      -0.358600
     27 C17         -2.9520    10.6450    -4.5210 ca         1 5GN       0.431100
     28 C18         -4.2720    10.5150    -3.8050 c3         1 5GN      -0.042400
     29 H1          -0.5420    -0.1250    -0.9300 ha         1 5GN       0.129000
     30 H2           4.0540    -0.0040    -2.0910 ha         1 5GN       0.107000
     31 H3           4.0510    -0.0000     2.1700 ha         1 5GN       0.108000
     32 H4           0.5050    -0.5870    -2.4410 hc         1 5GN       0.030700
     33 H5           2.0530    -0.4360    -3.2840 hc         1 5GN       0.030700
     34 H6           5.2610    -0.0030     0.0540 ha         1 5GN       0.104000
     35 H7           2.8050     1.9590    -4.0020 h4         1 5GN       0.005100
     36 H8          -0.5480     0.0180     3.3270 ha         1 5GN       0.115000
     37 H9           1.8910     0.0060     3.3870 ha         1 5GN       0.110000
     38 H10         -1.4880     4.9260    -3.0280 hn         1 5GN       0.173500
     39 H11         -1.7540     6.9880    -4.7360 h1         1 5GN       0.060200
     40 H12         -1.0030     7.5750    -3.2450 h1         1 5GN       0.060200
     41 H13          0.0030    13.0450    -6.9430 hc         1 5GN       0.018533
     42 H14         -0.9560    13.9910    -5.7980 hc         1 5GN       0.018533
     43 H15         -1.6940    13.3990    -7.2920 hc         1 5GN       0.018533
     44 H16         -3.2900    12.6740    -5.1500 ha         1 5GN       0.129000
     45 H17         -5.0790    10.7410    -4.4910 hc         1 5GN       0.018533
     46 H18         -4.3010    11.2070    -2.9720 hc         1 5GN       0.018533
     47 H19         -4.3840     9.5020    -3.4360 hc         1 5GN       0.018533
     48 C4           1.4130    -0.0020    -2.5250 c3         1 5GN       0.137200
     49 Br          -2.5640     0.0080     1.1810 br         1 5GN      -0.137100
@<TRIPOS>BOND
     1     1     6 ar  
     2     1    14 ar  
     3     1    29 1   
     4     2     8 ar  
     5     2    13 ar  
     6     2    30 1   
     7     3     8 ar  
     8     3    10 ar  
     9     3    31 1   
    10     4    12 2   
    11     4    17 1   
    12     4    48 1   
    13     5    23 ar  
    14     5    27 ar  
    15     6    10 ar  
    16     6    13 ar  
    17     7    11 2   
    18     7    17 1   
    19     7    18 1   
    20     8    34 1   
    21     9    23 ar  
    22     9    24 ar  
    23    10    16 ar  
    24    11    12 1   
    25    12    35 1   
    26    13    48 1   
    27    14    15 ar  
    28    14    49 1   
    29    15    16 ar  
    30    15    36 1   
    31    16    37 1   
    32    18    19 1   
    33    18    38 1   
    34    19    20 2   
    35    19    21 1   
    36    21    22 1   
    37    21    39 1   
    38    21    40 1   
    39    22    23 1   
    40    24    25 1   
    41    24    26 ar  
    42    25    41 1   
    43    25    42 1   
    44    25    43 1   
    45    26    27 ar  
    46    26    44 1   
    47    27    28 1   
    48    28    45 1   
    49    28    46 1   
    50    28    47 1   
    51    32    48 1   
    52    33    48 1   
@<TRIPOS>SUBSTRUCTURE
     1 5GN         1 TEMP              0 ****  ****    0 ROOT
