@<TRIPOS>MOLECULE
molecule
   48    49     1     0     0
SMALL
bcc


@<TRIPOS>ATOM
      1 C1           0.0000     0.0000     0.0000 c3         1 5GO       0.312900
      2 C2           1.5320     0.0000     0.0000 c3         1 5GO       0.103100
      3 C3           2.0340     0.0000     1.4470 c3         1 5GO       0.180100
      4 C4           1.4530     1.2140     2.1780 c3         1 5GO       0.113100
      5 C5          -0.0750     1.1670     2.0930 c3         1 5GO       0.149100
      6 C6          -0.6630     2.4080     2.7700 c3         1 5GO       0.150400
      7 O1          -0.4760     0.0560    -1.3470 os         1 5GO      -0.401600
      8 O2           2.0100    -1.1680    -0.6710 oh         1 5GO      -0.531800
      9 O3           3.4610     0.0720     1.4580 os         1 5GO      -0.587500
     10 O4           1.9280     2.4130     1.5650 oh         1 5GO      -0.587800
     11 O5          -0.4750     1.1380     0.7220 os         1 5GO      -0.398600
     12 O6          -2.0880     2.3080     2.7940 oh         1 5GO      -0.594800
     13 C1'         -4.3050     0.5210    -2.9470 c3         1 5GO       0.328900
     14 C2'         -4.0360     1.2230    -1.6140 c3         1 5GO       0.092100
     15 C3'         -2.5220     1.3450    -1.4070 c3         1 5GO       0.120100
     16 C4'         -1.8960    -0.0510    -1.4660 c3         1 5GO       0.123100
     17 C5'         -2.2480    -0.7040    -2.8050 c3         1 5GO       0.158100
     18 C6'         -1.6770    -2.1230    -2.8480 c3         1 5GO       0.149400
     19 O1'         -5.7130     0.3540    -3.1210 oh         1 5GO      -0.586800
     20 O2'         -4.6230     2.5250    -1.6320 oh         1 5GO      -0.606800
     21 O3'         -2.2610     1.9330    -0.1310 oh         1 5GO      -0.542800
     22 O5'         -3.6680    -0.7590    -2.9480 os         1 5GO      -0.433600
     23 O6'         -1.9040    -2.6900    -4.1400 oh         1 5GO      -0.613800
     24 S            4.1480    -1.2830     1.5590 s6         1 5GO       1.554300
     25 OS1          5.5290    -1.0170     1.7590 o          1 5GO      -0.729867
     26 OS2          3.3690    -2.0620     2.4560 o          1 5GO      -0.729867
     27 OS3          4.0310    -1.9500     0.1960 o          1 5GO      -0.729867
     28 H1          -0.3590    -0.9040     0.4770 h2         1 5GO       0.036700
     29 H2           1.8920     0.8870    -0.5060 h1         1 5GO       0.071700
     30 H3           1.7090    -0.9080     1.9410 h1         1 5GO       0.101700
     31 H4           1.7560     1.1880     3.2170 h1         1 5GO       0.043700
     32 H5          -0.4350     0.2750     2.5910 h1         1 5GO       0.049700
     33 H6          -0.2890     2.4770     3.7840 h1         1 5GO       0.033200
     34 H7          -0.3720     3.2920     2.2160 h1         1 5GO       0.033200
     35 H8           2.0590    -0.9990    -1.5980 ho         1 5GO       0.397000
     36 H9           2.5430     2.8380     2.1400 ho         1 5GO       0.400000
     37 H10         -2.4230     2.7710     3.5440 ho         1 5GO       0.385000
     38 H11         -3.9050     1.1210    -3.7550 h2         1 5GO       0.032700
     39 H12         -4.4630     0.6390    -0.8070 h1         1 5GO       0.067700
     40 H13         -2.0990     1.9630    -2.1900 h1         1 5GO       0.048700
     41 H14         -2.2870    -0.6560    -0.6570 h1         1 5GO       0.065700
     42 H15         -1.8290    -0.1170    -3.6130 h1         1 5GO       0.056700
     43 H16         -0.6120    -2.0890    -2.6510 h1         1 5GO       0.047700
     44 H17         -2.1630    -2.7310    -2.0950 h1         1 5GO       0.047700
     45 H18         -5.9050     0.3320    -4.0440 ho         1 5GO       0.408000
     46 H19         -5.3840     2.5350    -1.0750 ho         1 5GO       0.410000
     47 H20         -2.3470     2.8690    -0.1930 ho         1 5GO       0.402000
     48 H21         -1.4970    -3.5390    -4.1870 ho         1 5GO       0.403000
@<TRIPOS>BOND
     1    26    24 1
     2    10     4 1
     3     9    24 1
     4     9     3 1
     5    24    25 1
     6    24    27 1
     7    21    15 1
     8     4     3 1
     9     4     5 1
    10    20    14 1
    11     2     3 1
    12     2     8 1
    13     2     1 1
    14    15    14 1
    15    15    16 1
    16     7     1 1
    17     7    16 1
    18    11     5 1
    19    11     1 1
    20     6     5 1
    21     6    12 1
    22    14    13 1
    23    16    17 1
    24    13    19 1
    25    13    22 1
    26    17    22 1
    27    17    18 1
    28    18    23 1
    29     1    28 1
    30     2    29 1
    31     3    30 1
    32     4    31 1
    33     5    32 1
    34     6    33 1
    35     6    34 1
    36     8    35 1
    37    10    36 1
    38    12    37 1
    39    13    38 1
    40    14    39 1
    41    15    40 1
    42    16    41 1
    43    17    42 1
    44    18    43 1
    45    18    44 1
    46    19    45 1
    47    20    46 1
    48    21    47 1
    49    23    48 1
@<TRIPOS>SUBSTRUCTURE
     1 5GO         1 TEMP              0 ****  ****    0 ROOT
