@<TRIPOS>MOLECULE
5GP
   36    38     1     0     0
SMALL
bcc


@<TRIPOS>ATOM
      1 P           0.6690    0.9960    0.8610 p5        1 5GP      1.335900
      2 O1P         1.4140    2.3070    0.6790 o         1 5GP     -0.929500
      3 O2P        -0.2320    0.9730    2.0590 o         1 5GP     -0.929500
      4 O3P         1.3980   -0.2530    0.4810 o         1 5GP     -0.929500
      5 O5'        -0.4870    1.2100   -0.4330 os        1 5GP     -0.553200
      6 C5'        -1.2880    2.3060   -0.2780 c3        1 5GP      0.229400
      7 C4'        -0.7910    3.4680   -1.1740 c3        1 5GP      0.051100
      8 O4'        -1.9210    4.1880   -1.7320 os        1 5GP     -0.431600
      9 C3'         0.1050    4.4790   -0.4350 c3        1 5GP      0.131100
     10 O3'         1.4130    4.4670   -0.9580 oh        1 5GP     -0.685800
     11 C2'        -0.5220    5.8670   -0.6950 c3        1 5GP      0.103100
     12 O2'         0.1930    6.6950   -1.5850 oh        1 5GP     -0.617800
     13 C1'        -1.9120    5.5480   -1.3440 c3        1 5GP      0.213800
     14 N9         -3.0450    5.8100   -0.4580 na        1 5GP     -0.178900
     15 C8         -3.5620    4.9710    0.5510 cc        1 5GP      0.447400
     16 N7         -4.6620    5.4760    1.1550 nd        1 5GP     -0.629000
     17 C5         -4.8930    6.6930    0.5160 cd        1 5GP      0.194800
     18 C6         -5.9180    7.6910    0.7290 c         1 5GP      0.645000
     19 O6         -6.8530    7.6890    1.5500 o         1 5GP     -0.643500
     20 N1         -5.8280    8.8100   -0.1380 n         1 5GP     -0.497400
     21 C2         -4.8040    8.9440   -1.0980 cd        1 5GP      0.594800
     22 N2         -4.8020   10.1790   -1.8420 nh        1 5GP     -0.866800
     23 N3         -3.8500    8.0300   -1.3310 nc        1 5GP     -0.615100
     24 C4         -3.8930    6.9170   -0.5040 cc        1 5GP      0.057800
     25 H5'1       -2.3400    2.0620   -0.6130 h1        1 5GP     -0.001800
     26 H5'2       -1.3150    2.6390    0.8000 h1        1 5GP     -0.001800
     27 H4'        -0.2520    3.0420   -2.0640 h1        1 5GP      0.082700
     28 H3'         0.1370    4.2570    0.6680 h1        1 5GP      0.118700
     29 HO3'        1.8450    3.6730   -0.5550 ho        1 5GP      0.517000
     30 H2'        -0.6220    6.4570    0.2530 h1        1 5GP      0.068700
     31 HO2'        0.8300    6.1410   -2.0590 ho        1 5GP      0.432000
     32 H1'        -2.0690    6.1630   -2.2790 h2        1 5GP      0.086700
     33 H8         -3.0790    4.0010    0.7760 h5        1 5GP      0.116100
     34 HN1        -6.4640    9.5610    0.0090 hn        1 5GP      0.322500
     35 HN21       -5.5690   10.1970   -2.4860 hn        1 5GP      0.382300
     36 HN22       -3.9360   10.3020   -2.3330 hn        1 5GP      0.382300
@<TRIPOS>BOND
     1    1    2 1   
     2    1    3 1   
     3    1    4 1   
     4    1    5 1   
     5    5    6 1   
     6    6    7 1   
     7    6   25 1   
     8    6   26 1   
     9    7    8 1   
    10    7    9 1   
    11    7   27 1   
    12    8   13 1   
    13    9   10 1   
    14    9   11 1   
    15    9   28 1   
    16   10   29 1   
    17   11   12 1   
    18   11   13 1   
    19   11   30 1   
    20   12   31 1   
    21   13   14 1   
    22   13   32 1   
    23   14   15 1   
    24   14   24 1   
    25   15   16 2   
    26   15   33 1   
    27   16   17 1   
    28   17   18 1   
    29   17   24 2   
    30   18   19 2   
    31   18   20 1   
    32   20   21 1   
    33   20   34 1   
    34   21   22 1   
    35   21   23 2   
    36   22   35 1   
    37   22   36 1   
    38   23   24 1   
@<TRIPOS>SUBSTRUCTURE
     1 5GP         1 TEMP              0 ****  ****    0 ROOT
