@<TRIPOS>MOLECULE
molecule
   24    25     1     0     0
SMALL
bcc


@<TRIPOS>ATOM
      1 C4           0.0000     0.0000     0.0000 c3         1 5GQ       0.096100
      2 C6           1.2700     0.5750     2.3860 cc         1 5GQ       0.136700
      3 N1           0.1060     1.1390     2.1560 n2         1 5GQ      -0.424200
      4 C7           1.7660     0.5620     3.7140 cc         1 5GQ      -0.153000
      5 C8           2.9640    -0.0210     3.9760 cd         1 5GQ      -0.070000
      6 O           -0.4820    -1.2100     0.5870 oh         1 5GQ      -0.585800
      7 C3           1.5320     0.0000     0.0000 c3         1 5GQ       0.034300
      8 N            2.0120     0.0000     1.3860 na         1 5GQ      -0.140100
      9 C2           3.2140    -0.5830     1.6690 cc         1 5GQ      -0.022300
     10 C1           3.6970    -0.6030     2.9270 cd         1 5GQ      -0.202300
     11 C            5.0270    -1.2520     3.2110 c3         1 5GQ      -0.027800
     12 H1          -0.3630     0.0870    -1.0170 h1         1 5GQ       0.038700
     13 H5           1.1930     1.0130     4.5150 ha         1 5GQ       0.161000
     14 H6           3.3520    -0.0380     4.9880 ha         1 5GQ       0.135000
     15 H7          -1.0780    -1.6330    -0.0090 ho         1 5GQ       0.402000
     16 H8           1.8930     0.8870    -0.5070 h1         1 5GQ       0.057200
     17 H9           1.8930    -0.8870    -0.5070 h1         1 5GQ       0.057200
     18 H10          3.7890    -1.0350     0.8690 h4         1 5GQ       0.147000
     19 H11          4.9480    -2.3210     3.0530 hc         1 5GQ       0.038700
     20 H12          5.7780    -0.8430     2.5450 hc         1 5GQ       0.038700
     21 H13          5.3110    -1.0590     4.2380 hc         1 5GQ       0.038700
     22 C5          -0.4810     1.2010     0.8200 c3         1 5GQ       0.127800
     23 H2          -0.1710     2.1180     0.3330 h1         1 5GQ       0.057200
     24 H3          -1.5610     1.1740     0.8990 h1         1 5GQ       0.057200
@<TRIPOS>BOND
     1     3     2 2
     2     6     1 1
     3     2     4 1
     4     2     8 1
     5     1     7 1
     6     4     5 2
     7     8     7 1
     8     8     9 1
     9     5    10 1
    10     9    10 2
    11    10    11 1
    12     1    12 1
    13     4    13 1
    14     5    14 1
    15     6    15 1
    16     7    16 1
    17     7    17 1
    18     9    18 1
    19    11    19 1
    20    11    20 1
    21    11    21 1
    22     3    22 1
    23     1    22 1
    24    22    23 1
    25    22    24 1
@<TRIPOS>SUBSTRUCTURE
     1 5GQ         1 TEMP              0 ****  ****    0 ROOT
