@<TRIPOS>MOLECULE
5GR
   66    70     1     0     0
SMALL
bcc


@<TRIPOS>ATOM
      1 C1           0.0000     0.0000     0.0000 c3         1 5GR       0.000700
      2 C2          -2.3410     0.0000     1.4160 ca         1 5GR       0.737300
      3 C6          -4.4800     0.0050     2.2670 ca         1 5GR       0.431600
      4 C9           5.5420     0.0020    -0.9770 cc         1 5GR       0.414200
      5 C12          7.5640    -1.4260    -3.1820 ca         1 5GR      -0.058300
      6 C15          8.4000    -4.0370    -3.5730 ca         1 5GR      -0.210000
      7 C18          7.3530    -5.9380    -7.1670 cc         1 5GR       0.252600
      8 C21          6.6440    -6.1950   -11.5470 ca         1 5GR      -0.140300
      9 C27          7.2380    -2.0830    -4.3530 ca         1 5GR      -0.138000
     10 O            2.1140    -0.0000     1.0500 o          1 5GR      -0.530100
     11 C            1.5070     0.0000     0.0000 c          1 5GR       0.572100
     12 S           -0.6040     0.0000     1.7060 ss         1 5GR      -0.302400
     13 N1          -3.1700    -0.0000     2.4500 nb         1 5GR      -0.629000
     14 C7          -5.4160     0.0050     3.4480 c3         1 5GR      -0.042400
     15 C5          -4.9830     0.0110     0.9740 ca         1 5GR      -0.356600
     16 C3          -4.0870     0.0110    -0.0840 ca         1 5GR       0.431600
     17 C4          -4.5870     0.0180    -1.5060 c3         1 5GR      -0.042400
     18 N           -2.7890     0.0060     0.1680 nb         1 5GR      -0.629000
     19 N2           2.1810     0.0000    -1.1670 ns         1 5GR       0.003600
     20 C8           3.4010    -0.0010    -1.5970 cd         1 5GR       0.401300
     21 S1           4.2000    -0.0120    -3.1080 ss         1 5GR      -0.288300
     22 C10          5.7630    -0.0050    -2.2930 cd         1 5GR      -0.142700
     23 N3           4.2680     0.0010    -0.6330 nc         1 5GR      -0.654000
     24 C11          7.1110    -0.0050    -2.9650 c3         1 5GR       0.147200
     25 C16          7.6550    -3.3920    -4.5510 ca         1 5GR       0.156100
     26 C14          8.7170    -3.3760    -2.4020 ca         1 5GR      -0.050000
     27 C13          8.3010    -2.0730    -2.2060 ca         1 5GR      -0.135000
     28 O1           7.3360    -4.0400    -5.7010 os         1 5GR      -0.314900
     29 C17          7.7990    -5.3850    -5.8380 c3         1 5GR       0.207100
     30 N6           7.5960    -7.1630    -7.6470 nc         1 5GR      -0.313000
     31 N5           7.0560    -7.2680    -8.8100 nd         1 5GR      -0.366800
     32 N4           6.4650    -6.1710    -9.1270 na         1 5GR       0.593400
     33 C19          6.6220    -5.2940    -8.1070 cd         1 5GR      -0.433600
     34 C20          5.7400    -5.9150   -10.3740 c3         1 5GR       0.036600
     35 C26          7.4380    -5.1880   -12.0640 ca         1 5GR      -0.068000
     36 C25          8.2720    -5.4460   -13.1360 ca         1 5GR      -0.100000
     37 C24          8.3140    -6.7120   -13.6900 ca         1 5GR      -0.082000
     38 C23          7.5210    -7.7190   -13.1710 ca         1 5GR      -0.100000
     39 C22          6.6860    -7.4600   -12.1010 ca         1 5GR      -0.068000
     40 H1          -0.3610     0.8840    -0.5110 h1         1 5GR       0.061700
     41 H2          -0.3610    -0.8840    -0.5110 h1         1 5GR       0.061700
     42 H3           6.3450     0.0050    -0.2500 h4         1 5GR       0.003100
     43 H4           8.7260    -5.0580    -3.7250 ha         1 5GR       0.123000
     44 H5           6.6570    -1.5780    -5.1140 ha         1 5GR       0.117000
     45 H6          -6.0370     0.8930     3.4170 hc         1 5GR       0.019033
     46 H7          -6.0450    -0.8760     3.4110 hc         1 5GR       0.019033
     47 H8          -4.8400    -0.0010     4.3660 hc         1 5GR       0.019033
     48 H9          -6.0510     0.0160     0.7960 ha         1 5GR       0.129000
     49 H10         -3.7470     0.0970    -2.1840 hc         1 5GR       0.019033
     50 H11         -5.2500     0.8620    -1.6510 hc         1 5GR       0.019033
     51 H12         -5.1260    -0.9020    -1.7030 hc         1 5GR       0.019033
     52 H13          1.6810     0.0120    -2.0330 hn         1 5GR       0.121500
     53 H14          7.0390     0.5010    -3.9200 hc         1 5GR       0.026200
     54 H15          7.8270     0.5110    -2.3370 hc         1 5GR       0.026200
     55 H16          9.2960    -3.8790    -1.6370 ha         1 5GR       0.103000
     56 H17          8.5530    -1.5570    -1.2880 ha         1 5GR       0.109000
     57 H18          7.3900    -5.9910    -5.0380 h1         1 5GR       0.015200
     58 H19          8.8810    -5.4010    -5.7850 h1         1 5GR       0.015200
     59 H20          6.2450    -4.2800    -8.0570 h4         1 5GR       0.169000
     60 H21          4.8720    -6.5600   -10.4260 h1         1 5GR       0.040200
     61 H22          5.4230    -4.8800   -10.4020 h1         1 5GR       0.040200
     62 H23          7.4050    -4.1960   -11.6300 ha         1 5GR       0.108000
     63 H24          8.8930    -4.6570   -13.5410 ha         1 5GR       0.107000
     64 H25          8.9680    -6.9150   -14.5290 ha         1 5GR       0.104000
     65 H26          7.5540    -8.7110   -13.6050 ha         1 5GR       0.107000
     66 H27          6.0660    -8.2500   -11.6950 ha         1 5GR       0.108000
@<TRIPOS>BOND
     1     1    11 1   
     2     1    12 1   
     3     1    40 1   
     4     1    41 1   
     5     2    12 1   
     6     2    13 ar  
     7     2    18 ar  
     8     3    13 ar  
     9     3    14 1   
    10     3    15 ar  
    11     4    22 2   
    12     4    23 1   
    13     4    42 1   
    14     5     9 ar  
    15     5    24 1   
    16     5    27 ar  
    17     6    25 ar  
    18     6    26 ar  
    19     6    43 1   
    20     7    29 1   
    21     7    30 1   
    22     7    33 2   
    23     8    34 1   
    24     8    35 ar  
    25     8    39 ar  
    26     9    25 ar  
    27     9    44 1   
    28    10    11 2   
    29    11    19 1   
    30    14    45 1   
    31    14    46 1   
    32    14    47 1   
    33    15    16 ar  
    34    15    48 1   
    35    16    17 1   
    36    16    18 ar  
    37    17    49 1   
    38    17    50 1   
    39    17    51 1   
    40    19    20 1   
    41    19    52 1   
    42    20    21 1   
    43    20    23 2   
    44    21    22 1   
    45    22    24 1   
    46    24    53 1   
    47    24    54 1   
    48    25    28 1   
    49    26    27 ar  
    50    26    55 1   
    51    27    56 1   
    52    28    29 1   
    53    29    57 1   
    54    29    58 1   
    55    30    31 2   
    56    31    32 1   
    57    32    33 1   
    58    32    34 1   
    59    33    59 1   
    60    34    60 1   
    61    34    61 1   
    62    35    36 ar  
    63    35    62 1   
    64    36    37 ar  
    65    36    63 1   
    66    37    38 ar  
    67    37    64 1   
    68    38    39 ar  
    69    38    65 1   
    70    39    66 1   
@<TRIPOS>SUBSTRUCTURE
     1 5GR         1 TEMP              0 ****  ****    0 ROOT
