@<TRIPOS>MOLECULE
molecule
   39    40     1     0     0
SMALL
bcc


@<TRIPOS>ATOM
      1 C2           0.0000     0.0000     0.0000 c          1 5GS       0.806500
      2 C5           1.3090    -0.0000     2.3860 cc         1 5GS      -0.379200
      3 C4           2.0250     0.0000     1.1640 c          1 5GS       0.698700
      4 N3           1.3460     0.0000     0.0000 ns         1 5GS      -0.571500
      5 N1          -0.6920     0.0000     1.1540 n          1 5GS      -0.347000
      6 C6          -0.0400     0.0010     2.3570 cd         1 5GS       0.030600
      7 O4           3.2430     0.0000     1.1650 o          1 5GS      -0.690500
      8 O2          -0.5990     0.0050    -1.0580 o          1 5GS      -0.672500
      9 O2B         -7.8050     4.0960     6.7630 o          1 5GS      -0.906167
     10 PB          -6.2150     4.1910     7.0050 p5         1 5GS       1.308900
     11 O3B         -5.7330     5.7140     6.8060 o          1 5GS      -0.906167
     12 O1B         -5.8980     3.7480     8.3810 o          1 5GS      -0.906167
     13 O3A         -5.4540     3.2440     5.9490 os         1 5GS      -0.709800
     14 PA          -5.2480     1.6520     5.8180 p5         1 5GS       1.421800
     15 O1A         -6.5370     0.9670     6.0650 o          1 5GS      -0.859000
     16 O2A         -4.1630     1.1630     6.9020 o          1 5GS      -0.859000
     17 O5'         -4.7260     1.2980     4.3370 os         1 5GS      -0.582200
     18 C5'         -4.5470    -0.0420     3.8750 c3         1 5GS       0.238400
     19 C4'         -4.0430    -0.0190     2.4300 c3         1 5GS       0.117100
     20 C3'         -3.9620    -1.4560     1.8680 c3         1 5GS       0.083100
     21 O3'         -5.1150    -1.7510     1.0780 oh         1 5GS      -0.587800
     22 C2'         -2.6910    -1.4430     0.9870 c3         1 5GS       0.090800
     23 C2M         -1.6640    -2.4470     1.5120 c3         1 5GS      -0.119100
     24 O2'         -3.0230    -1.7290    -0.3730 oh         1 5GS      -0.567800
     25 O4'         -2.6870     0.4750     2.3790 os         1 5GS      -0.374600
     26 C1'         -2.1570     0.0000     1.1210 c3         1 5GS       0.318500
     27 H1           1.8380    -0.0000     3.3320 ha         1 5GS       0.169000
     28 H2           1.8440    -0.0000    -0.8680 hn         1 5GS       0.337500
     29 H3          -0.6040     0.0010     3.2820 h4         1 5GS       0.205000
     30 H9          -3.8230    -0.5460     4.5030 h1         1 5GS       0.028700
     31 H10         -5.4930    -0.5680     3.9190 h1         1 5GS       0.028700
     32 H11         -4.6880     0.5900     1.8090 h1         1 5GS       0.085700
     33 H12         -3.8540    -2.1710     2.6740 h1         1 5GS       0.050700
     34 H13         -5.6090    -2.4410     1.4880 ho         1 5GS       0.394000
     35 H14         -2.1020    -3.4380     1.5270 hc         1 5GS       0.042033
     36 H15         -0.7950    -2.4460     0.8650 hc         1 5GS       0.042033
     37 H16         -1.3670    -2.1690     2.5160 hc         1 5GS       0.042033
     38 H17         -3.0810    -2.6620    -0.4930 ho         1 5GS       0.389000
     39 H18         -2.5220     0.6130     0.3060 h2         1 5GS       0.106700
@<TRIPOS>BOND
     1     9    10 1
     2    12    10 1
     3    10    11 1
     4    10    13 1
     5    16    14 1
     6    21    20 1
     7    18    19 1
     8    18    17 1
     9    13    14 1
    10    14    17 1
    11    14    15 1
    12    19    20 1
    13    19    25 1
    14    20    22 1
    15    24    22 1
    16    25    26 1
    17    22    26 1
    18    22    23 1
    19    26     5 1
    20     5     6 1
    21     5     1 1
    22     6     2 2
    23     8     1 2
    24     1     4 1
    25     2     3 1
    26     4     3 1
    27     3     7 2
    28     2    27 1
    29     4    28 1
    30     6    29 1
    31    18    30 1
    32    18    31 1
    33    19    32 1
    34    20    33 1
    35    21    34 1
    36    23    35 1
    37    23    36 1
    38    23    37 1
    39    24    38 1
    40    26    39 1
@<TRIPOS>SUBSTRUCTURE
     1 5GS         1 TEMP              0 ****  ****    0 ROOT
