@<TRIPOS>MOLECULE
5GT
   22    23     1     0     0
SMALL
bcc


@<TRIPOS>ATOM
      1 FAB          0.0000     0.0000     0.0000 f          1 5GT      -0.207967
      2 CAO          1.3980     0.0000     0.0000 c3         1 5GT       0.643200
      3 FAC          1.8650     0.0000     1.3190 f          1 5GT      -0.207967
      4 FAD          1.8640    -1.1420    -0.6590 f          1 5GT      -0.207967
      5 CAL          1.9000     1.2300    -0.7110 ca         1 5GT      -0.216300
      6 CAG          3.2610     1.4420    -0.8400 ca         1 5GT      -0.049000
      7 CAN          3.7230     2.5700    -1.4980 ca         1 5GT      -0.131400
      8 NAJ          5.0970     2.7990    -1.6490 ns         1 5GT      -0.010100
      9 C            5.5550     4.0060    -2.0320 c          1 5GT       0.595500
     10 O            6.7450     4.1710    -2.1990 o          1 5GT      -0.654500
     11 CA           4.6050     5.1550    -2.2550 c3         1 5GT       0.081800
     12 N            3.3010     4.6250    -2.6800 nu         1 5GT      -0.392600
     13 CAM          2.8110     3.4870    -2.0240 ca         1 5GT       0.021600
     14 CAF          1.4510     3.2680    -1.8930 ca         1 5GT      -0.128000
     15 CAE          0.9980     2.1380    -1.2350 ca         1 5GT      -0.034000
     16 H1           3.9620     0.6930    -0.4930 ha         1 5GT       0.121000
     17 H2           5.7450     2.0580    -1.4710 hn         1 5GT       0.184500
     18 H3           4.4780     5.6910    -1.3220 h1         1 5GT       0.042200
     19 H4           4.9990     5.7880    -3.0410 h1         1 5GT       0.042200
     20 H5           2.6160     5.3530    -2.6420 hn         1 5GT       0.264800
     21 H6           0.7440     3.9790    -2.3030 ha         1 5GT       0.119000
     22 H7          -0.0660     1.9640    -1.1310 ha         1 5GT       0.123000
@<TRIPOS>BOND
     1     1     2 1   
     2     2     3 1   
     3     2     4 1   
     4     2     5 1   
     5     5     6 ar  
     6     5    15 ar  
     7     6     7 ar  
     8     6    16 1   
     9     7     8 1   
    10     7    13 ar  
    11     8     9 1   
    12     8    17 1   
    13     9    10 2   
    14     9    11 1   
    15    11    12 1   
    16    11    18 1   
    17    11    19 1   
    18    12    13 1   
    19    12    20 1   
    20    13    14 ar  
    21    14    15 ar  
    22    14    21 1   
    23    15    22 1   
@<TRIPOS>SUBSTRUCTURE
     1 5GT         1 TEMP              0 ****  ****    0 ROOT
