@<TRIPOS>MOLECULE
molecule
   22    23     1     0     0
SMALL
bcc


@<TRIPOS>ATOM
      1 FAB          0.0000     0.0000     0.0000 f          1 5GT      -0.222967
      2 CAO          1.3980     0.0000     0.0000 c3         1 5GT       0.678200
      3 FAC          1.8650     0.0000     1.3190 f          1 5GT      -0.222967
      4 FAD          1.8640    -1.1420    -0.6590 f          1 5GT      -0.222967
      5 CAL          1.9000     1.2300    -0.7110 ca         1 5GT      -0.186300
      6 CAG          3.2610     1.4420    -0.8400 ca         1 5GT      -0.095000
      7 CAN          3.7230     2.5700    -1.4980 ca         1 5GT       0.019600
      8 NAJ          5.0970     2.7990    -1.6490 ns         1 5GT      -0.459100
      9 C            5.5550     4.0060    -2.0320 c          1 5GT       0.700500
     10 O            6.7450     4.1710    -2.1990 o          1 5GT      -0.616500
     11 CA           4.6050     5.1550    -2.2550 c3         1 5GT       0.111800
     12 N            3.3010     4.6250    -2.6800 nu         1 5GT      -0.706600
     13 CAM          2.8110     3.4870    -2.0240 ca         1 5GT       0.114600
     14 CAF          1.4510     3.2680    -1.8930 ca         1 5GT      -0.157000
     15 CAE          0.9980     2.1380    -1.2350 ca         1 5GT      -0.075000
     16 H1           3.9620     0.6930    -0.4930 ha         1 5GT       0.150000
     17 H2           5.7450     2.0580    -1.4710 hn         1 5GT       0.343500
     18 H3           4.4780     5.6910    -1.3220 h1         1 5GT       0.078700
     19 H4           4.9990     5.7880    -3.0410 h1         1 5GT       0.078700
     20 H5           2.6160     5.3530    -2.6420 hn         1 5GT       0.388800
     21 H6           0.7440     3.9790    -2.3030 ha         1 5GT       0.146000
     22 H7          -0.0660     1.9640    -1.1310 ha         1 5GT       0.155000
@<TRIPOS>BOND
     1    10     9 2   
     2     9    11 1   
     3     9     8 1   
     4    11    12 1   
     5     8     7 1   
     6    12    13 1   
     7     7    13 ar  
     8     7     6 ar  
     9    13    14 ar  
    10     6     5 ar  
    11    14    15 ar  
    12     5    15 ar  
    13     5     2 1   
    14     3     2 1   
    15     4     2 1   
    16     2     1 1   
    17     6    16 1   
    18     8    17 1   
    19    11    18 1   
    20    11    19 1   
    21    12    20 1   
    22    14    21 1   
    23    15    22 1   
@<TRIPOS>SUBSTRUCTURE
     1 5GT         1 TEMP              0 ****  ****    0 ROOT
