@<TRIPOS>MOLECULE
5GU
   19    20     1     0     0
SMALL
bcc


@<TRIPOS>ATOM
      1 O            0.0000     0.0000     0.0000 o          1 5GU      -0.660500
      2 C            1.2130     0.0000     0.0000 c          1 5GU       0.595500
      3 CA           1.9580     0.0000     1.3100 c3         1 5GU       0.082800
      4 N            3.2510    -0.6760     1.1260 nu         1 5GU      -0.396600
      5 CAK          3.9760    -0.4010    -0.0410 ca         1 5GU      -0.002400
      6 CAD          5.3580    -0.4680    -0.0560 ca         1 5GU      -0.115000
      7 CAC          6.0460    -0.1850    -1.2230 ca         1 5GU      -0.072000
      8 CAJ          5.3560     0.1630    -2.3710 ca         1 5GU       0.030100
      9 Br           6.3070     0.5500    -3.9580 br         1 5GU      -0.124100
     10 CAE          3.9740     0.2300    -2.3620 ca         1 5GU      -0.092000
     11 CAL          3.2770    -0.0530    -1.1980 ca         1 5GU      -0.121400
     12 NAH          1.8780    -0.0070    -1.1710 ns         1 5GU      -0.009100
     13 H1           1.3780    -0.5470     2.0430 h1         1 5GU       0.040700
     14 H2           2.1380     1.0250     1.6110 h1         1 5GU       0.040700
     15 H3           3.8300    -0.5120     1.9260 hn         1 5GU       0.262800
     16 H4           5.8990    -0.7410     0.8420 ha         1 5GU       0.116000
     17 H5           7.1280    -0.2370    -1.2380 ha         1 5GU       0.119000
     18 H6           3.4380     0.5030    -3.2630 ha         1 5GU       0.123000
     19 H7           1.3670     0.0200    -2.0310 hn         1 5GU       0.183500
@<TRIPOS>BOND
     1     1     2 2   
     2     2     3 1   
     3     2    12 1   
     4     3     4 1   
     5     3    13 1   
     6     3    14 1   
     7     4     5 1   
     8     4    15 1   
     9     5     6 ar  
    10     5    11 ar  
    11     6     7 ar  
    12     6    16 1   
    13     7     8 ar  
    14     7    17 1   
    15     8     9 1   
    16     8    10 ar  
    17    10    11 ar  
    18    10    18 1   
    19    11    12 1   
    20    12    19 1   
@<TRIPOS>SUBSTRUCTURE
     1 5GU         1 TEMP              0 ****  ****    0 ROOT
