@<TRIPOS>MOLECULE
molecule
   19    20     1     0     0
SMALL
bcc


@<TRIPOS>ATOM
      1 O            0.0000     0.0000     0.0000 o          1 5GU      -0.619500
      2 C            1.2130     0.0000     0.0000 c          1 5GU       0.699500
      3 CA           1.9580     0.0000     1.3100 c3         1 5GU       0.112800
      4 N            3.2510    -0.6760     1.1260 nu         1 5GU      -0.707600
      5 CAK          3.9760    -0.4010    -0.0410 ca         1 5GU       0.099600
      6 CAD          5.3580    -0.4680    -0.0560 ca         1 5GU      -0.150000
      7 CAC          6.0460    -0.1850    -1.2230 ca         1 5GU      -0.095000
      8 CAJ          5.3560     0.1630    -2.3710 ca         1 5GU      -0.022900
      9 Br           6.3070     0.5500    -3.9580 br         1 5GU      -0.088100
     10 CAE          3.9740     0.2300    -2.3620 ca         1 5GU      -0.118000
     11 CAL          3.2770    -0.0530    -1.1980 ca         1 5GU       0.024600
     12 NAH          1.8780    -0.0070    -1.1710 ns         1 5GU      -0.459100
     13 H1           1.3780    -0.5470     2.0430 h1         1 5GU       0.076700
     14 H2           2.1380     1.0250     1.6110 h1         1 5GU       0.076700
     15 H3           3.8300    -0.5120     1.9260 hn         1 5GU       0.386800
     16 H4           5.8990    -0.7410     0.8420 ha         1 5GU       0.144000
     17 H5           7.1280    -0.2370    -1.2380 ha         1 5GU       0.148000
     18 H6           3.4380     0.5030    -3.2630 ha         1 5GU       0.150000
     19 H7           1.3670     0.0200    -2.0310 hn         1 5GU       0.342500
@<TRIPOS>BOND
     1     1     2 2   
     2     2     3 1   
     3     2    12 1   
     4     3     4 1   
     5    12    11 1   
     6     4     5 1   
     7    11     5 ar  
     8    11    10 ar  
     9     5     6 ar  
    10    10     8 ar  
    11     6     7 ar  
    12     8     7 ar  
    13     8     9 1   
    14     3    13 1   
    15     3    14 1   
    16     4    15 1   
    17     6    16 1   
    18     7    17 1   
    19    10    18 1   
    20    12    19 1   
@<TRIPOS>SUBSTRUCTURE
     1 5GU         1 TEMP              0 ****  ****    0 ROOT
