@<TRIPOS>MOLECULE
molecule
   27    28     1     0     0
SMALL
bcc


@<TRIPOS>ATOM
      1 O            0.0000     0.0000     0.0000 o          1 5GV      -0.669500
      2 C            1.2130     0.0000     0.0000 c          1 5GV       0.663500
      3 NAI          1.8790     0.0000     1.1690 ns         1 5GV      -0.451100
      4 CAO          3.2720    -0.1420     1.1990 ca         1 5GV      -0.017400
      5 CAG          3.9710     0.0610     2.3730 ca         1 5GV      -0.130000
      6 CAM          5.3630    -0.0760     2.3850 ca         1 5GV      -0.082600
      7 CAK          6.1130     0.1390     3.6350 c          1 5GV       0.880200
      8 OAD          7.4550     0.0080     3.6470 o          1 5GV      -0.832800
      9 OAB          5.5230     0.4340     4.6560 o          1 5GV      -0.832800
     10 CAE          6.0430    -0.4150     1.2110 ca         1 5GV      -0.105000
     11 CAF          5.3410    -0.6200     0.0430 ca         1 5GV      -0.129000
     12 CAN          3.9600    -0.4890     0.0320 ca         1 5GV       0.034600
     13 N            3.2320    -0.7140    -1.1370 nu         1 5GV      -0.721600
     14 CA           1.9590    -0.0070    -1.3100 c3         1 5GV       0.127500
     15 CB           2.2340     1.4320    -1.7490 c3         1 5GV      -0.071400
     16 CAA          2.8790     1.4280    -3.1370 c3         1 5GV      -0.081100
     17 H1           1.3730     0.1010     2.0270 hn         1 5GV       0.331500
     18 H2           3.4360     0.2320     3.3000 ha         1 5GV       0.152000
     19 H4           7.1210    -0.5210     1.2220 ha         1 5GV       0.161000
     20 H5           5.8680    -0.8820    -0.8670 ha         1 5GV       0.123000
     21 H6           3.0870    -1.6970    -1.2560 hn         1 5GV       0.366800
     22 H7           1.3640    -0.5130    -2.0610 h1         1 5GV       0.079700
     23 H8           1.3020     1.9830    -1.7860 hc         1 5GV       0.053700
     24 H9           2.9050     1.9040    -1.0410 hc         1 5GV       0.053700
     25 H10          3.9070     1.0930    -3.0560 hc         1 5GV       0.032033
     26 H11          2.3310     0.7570    -3.7870 hc         1 5GV       0.032033
     27 H12          2.8570     2.4290    -3.5490 hc         1 5GV       0.032033
@<TRIPOS>BOND
     1     1     2 2   
     2    16    15 1   
     3    15    14 1   
     4     2    14 1   
     5     2     3 1   
     6    14    13 1   
     7     3     4 1   
     8    13    12 1   
     9     4    12 ar  
    10     4     5 ar  
    11    12    11 ar  
    12     5     6 ar  
    13    11    10 ar  
    14     6    10 ar  
    15     6     7 1   
    16     9     7 1   
    17     7     8 1   
    18     3    17 1   
    19     5    18 1   
    20    10    19 1   
    21    11    20 1   
    22    13    21 1   
    23    14    22 1   
    24    15    23 1   
    25    15    24 1   
    26    16    25 1   
    27    16    26 1   
    28    16    27 1   
@<TRIPOS>SUBSTRUCTURE
     1 5GV         1 TEMP              0 ****  ****    0 ROOT
