@<TRIPOS>MOLECULE
molecule
   46    48     1     0     0
SMALL
bcc


@<TRIPOS>ATOM
      1 CAM          0.0000     0.0000     0.0000 ca         1 5GW      -0.116500
      2 CAK          1.3800     0.0000     0.0000 ca         1 5GW      -0.138500
      3 CAJ          2.0740     0.0000     1.1970 ca         1 5GW      -0.180000
      4 CAL          1.3890     0.0020     2.3990 ca         1 5GW      -0.138500
      5 CAN          0.0090     0.0000     2.4110 ca         1 5GW      -0.116500
      6 CAU         -0.6950     0.0010     1.2080 ca         1 5GW      -0.001800
      7 CAV         -2.1780     0.0000     1.2140 cc         1 5GW      -0.273400
      8 CAO         -2.8750    -1.0610     1.7130 cd         1 5GW       0.000600
      9 CAW         -2.9340     1.1460     0.6900 c          1 5GW       0.713700
     10 OAA         -2.3540     2.1170     0.2380 o          1 5GW      -0.668500
     11 NAQ         -4.2830     1.0990     0.7170 ns         1 5GW      -0.565500
     12 CAX         -4.9140     0.0230     1.2160 c          1 5GW       0.802500
     13 OAB         -6.1290     0.0040     1.2300 o          1 5GW      -0.632500
     14 NBC         -4.2400    -1.0310     1.7050 n          1 5GW      -0.342000
     15 C1'         -4.9840    -2.1760     2.2360 c3         1 5GW       0.303500
     16 O4'         -5.9330    -2.6560     1.2570 os         1 5GW      -0.345600
     17 C2'         -5.8470    -1.7440     3.4420 c3         1 5GW       0.072100
     18 O2'         -5.1890    -2.0660     4.6690 oh         1 5GW      -0.592800
     19 C3'         -7.1450    -2.5700     3.2910 c3         1 5GW       0.098100
     20 O3'         -7.3260    -3.4260     4.4200 oh         1 5GW      -0.586800
     21 C4'         -6.9120    -3.4030     2.0120 c3         1 5GW       0.125100
     22 C5'         -8.2130    -3.5300     1.2160 c3         1 5GW       0.239400
     23 O5'         -8.0050    -4.3990     0.0990 os         1 5GW      -0.589200
     24 PBE         -9.1650    -4.7610    -0.9570 p5         1 5GW       1.435800
     25 OAI        -10.3290    -5.5890    -0.2130 o          1 5GW      -0.860500
     26 OAD         -9.7290    -3.5130    -1.5180 o          1 5GW      -0.860500
     27 OAT         -8.5470    -5.6530    -2.1470 os         1 5GW      -0.714800
     28 PBD         -9.0140    -5.9900    -3.6500 p5         1 5GW       1.322900
     29 OAG         -8.2710    -7.3260    -4.1560 o          1 5GW      -0.860167
     30 OAH        -10.4780    -6.2000    -3.6770 o          1 5GW      -0.860167
     31 OAC         -8.6290    -4.7630    -4.6180 o          1 5GW      -0.860167
     32 H1          -0.5420     0.0000    -0.9380 ha         1 5GW       0.129500
     33 H2           1.9200    -0.0010    -0.9390 ha         1 5GW       0.106500
     34 H3           3.1570     0.0010     1.1920 ha         1 5GW       0.101000
     35 H4           1.9380     0.0010     3.3330 ha         1 5GW       0.106500
     36 H5          -0.5260     0.0010     3.3540 ha         1 5GW       0.129500
     37 H6          -2.3530    -1.8560     2.2320 h4         1 5GW       0.158000
     38 H7          -4.8150     1.8690     0.3630 hn         1 5GW       0.350500
     39 H8          -4.3080    -2.9720     2.5240 h2         1 5GW       0.079700
     40 H9          -6.0660    -0.6840     3.3890 h1         1 5GW       0.059700
     41 H10         -5.2000    -1.3140     5.2380 ho         1 5GW       0.383000
     42 H11         -7.9970    -1.9130     3.1640 h1         1 5GW       0.059700
     43 H12         -8.1070    -3.1730     4.8840 ho         1 5GW       0.387000
     44 H13         -6.5230    -4.3810     2.2670 h1         1 5GW       0.072700
     45 H14         -8.9870    -3.9390     1.8530 h1         1 5GW       0.035200
     46 H15         -8.5160    -2.5520     0.8610 h1         1 5GW       0.035200
@<TRIPOS>BOND
     1    10     9 2   
     2    11     9 1   
     3    11    12 1   
     4    13    12 2   
     5     9     7 1   
     6    12    14 1   
     7     1     2 ar  
     8     1     6 ar  
     9    17    18 1   
    10    17    19 1   
    11    17    15 1   
    12     7     6 1   
    13     7     8 2   
    14    14     8 1   
    15    14    15 1   
    16     2     3 ar  
    17    20    19 1   
    18     6     5 ar  
    19    19    21 1   
    20    15    16 1   
    21    26    24 1   
    22    25    24 1   
    23     3     4 ar  
    24     5     4 ar  
    25    24    23 1   
    26    24    27 1   
    27    21    16 1   
    28    21    22 1   
    29    23    22 1   
    30    30    28 1   
    31    27    28 1   
    32    29    28 1   
    33    28    31 1   
    34     1    32 1   
    35     2    33 1   
    36     3    34 1   
    37     4    35 1   
    38     5    36 1   
    39     8    37 1   
    40    11    38 1   
    41    15    39 1   
    42    17    40 1   
    43    18    41 1   
    44    19    42 1   
    45    20    43 1   
    46    21    44 1   
    47    22    45 1   
    48    22    46 1   
@<TRIPOS>SUBSTRUCTURE
     1 5GW         1 TEMP              0 ****  ****    0 ROOT
