@<TRIPOS>MOLECULE
5GX
   47    51     1     0     0
SMALL
bcc


@<TRIPOS>ATOM
      1 CL          0.2310   -1.1580    0.2640 cl        1 5GX     -0.088400
      2 C02         1.9180   -0.9640    0.3190 ca        1 5GX     -0.135900
      3 C03         2.5760   -0.4780    1.4570 ca        1 5GX      0.126000
      4 C04         1.9160   -0.1250    2.6800 cc        1 5GX     -0.239300
      5 C05         0.7830   -0.7090    3.2810 cd        1 5GX     -0.093300
      6 N06         0.5400    0.0020    4.4580 na        1 5GX      0.086400
      7 C07        -0.5000   -0.3360    5.4150 c3        1 5GX      0.103600
      8 C08        -0.0730   -1.3030    6.4800 ca        1 5GX     -0.122300
      9 C09         0.9130   -0.9450    7.4050 ca        1 5GX     -0.107500
     10 C10         1.2780   -1.8350    8.4140 ca        1 5GX     -0.132500
     11 C11         0.6600   -3.0820    8.5060 ca        1 5GX     -0.118000
     12 C12        -0.3240   -3.4410    7.5850 ca        1 5GX     -0.132500
     13 C13        -0.6890   -2.5550    6.5710 ca        1 5GX     -0.107500
     14 N14         1.4550    0.9740    4.6530 nd        1 5GX     -0.524800
     15 C15         2.3000    0.9350    3.6000 cc        1 5GX      0.351200
     16 C16         3.9800   -0.3440    1.3360 ca        1 5GX     -0.022900
     17 N17         4.9570    0.1010    2.2380 nc        1 5GX     -0.558100
     18 C18         6.1380    0.0030    1.5780 cd        1 5GX      0.526400
     19 C19         7.4340    0.3480    2.0980 cd        1 5GX     -0.307200
     20 C20         8.6640    0.3450    1.4110 cc        1 5GX     -0.124300
     21 N21         9.6300    0.7510    2.3270 na        1 5GX      0.100400
     22 C22        11.0360    0.8870    2.0280 c3        1 5GX      0.038600
     23 N23         9.1010    1.0100    3.5380 nc        1 5GX     -0.515800
     24 C24         7.7600    0.7790    3.4500 cd        1 5GX      0.376600
     25 C25         6.8020    0.9420    4.5600 c3        1 5GX     -0.128400
     26 N26         5.9860   -0.4930    0.2570 na        1 5GX     -0.381000
     27 C27         4.6160   -0.7250    0.0750 ca        1 5GX      0.399800
     28 N28         3.9580   -1.2040   -1.0190 nb        1 5GX     -0.657000
     29 C29         2.6360   -1.3060   -0.8620 ca        1 5GX      0.422200
     30 H29         2.0880   -1.6890   -1.7440 h4        1 5GX      0.036100
     31 H05         0.1600   -1.5460    2.9670 h4        1 5GX      0.184000
     32 H15         3.1390    1.6270    3.4990 h4        1 5GX      0.059100
     33 H071       -1.3590   -0.7680    4.8250 h1        1 5GX      0.073200
     34 H072       -0.8510    0.6160    5.9120 h1        1 5GX      0.073200
     35 H09         1.4030    0.0390    7.3310 ha        1 5GX      0.140500
     36 H13        -1.4630   -2.8450    5.8450 ha        1 5GX      0.140500
     37 H10         2.0560   -1.5520    9.1380 ha        1 5GX      0.134500
     38 H11         0.9490   -3.7830    9.3030 ha        1 5GX      0.133000
     39 H12        -0.8120   -4.4240    7.6540 ha        1 5GX      0.134500
     40 H26         6.6990   -0.6560   -0.4010 hn        1 5GX      0.312700
     41 H20         8.9060    0.0950    0.3790 h4        1 5GX      0.173000
     42 H221       11.2040    0.6080    0.9560 h1        1 5GX      0.061700
     43 H222       11.6360    0.2100    2.6920 h1        1 5GX      0.061700
     44 H223       11.3630    1.9480    2.1970 h1        1 5GX      0.061700
     45 H251        6.0390    1.7130    4.2840 hc        1 5GX      0.062367
     46 H252        7.3090    1.2590    5.5050 hc        1 5GX      0.062367
     47 H253        6.2720   -0.0270    4.7410 hc        1 5GX      0.062367
@<TRIPOS>BOND
     1    1    2 1   
     2    2    3 ar  
     3    2   29 ar  
     4    3    4 1   
     5    3   16 ar  
     6    4    5 2   
     7    4   15 1   
     8    5    6 1   
     9    5   31 1   
    10    6    7 1   
    11    6   14 1   
    12    7    8 1   
    13    7   33 1   
    14    7   34 1   
    15    8    9 ar  
    16    8   13 ar  
    17    9   10 ar  
    18    9   35 1   
    19   10   11 ar  
    20   10   37 1   
    21   11   12 ar  
    22   11   38 1   
    23   12   13 ar  
    24   12   39 1   
    25   13   36 1   
    26   14   15 2   
    27   15   32 1   
    28   16   17 1   
    29   16   27 ar  
    30   17   18 2   
    31   18   19 1   
    32   18   26 1   
    33   19   20 2   
    34   19   24 1   
    35   20   21 1   
    36   20   41 1   
    37   21   22 1   
    38   21   23 1   
    39   22   42 1   
    40   22   43 1   
    41   22   44 1   
    42   23   24 2   
    43   24   25 1   
    44   25   45 1   
    45   25   46 1   
    46   25   47 1   
    47   26   27 1   
    48   26   40 1   
    49   27   28 ar  
    50   28   29 ar  
    51   29   30 1   
@<TRIPOS>SUBSTRUCTURE
     1 5GX         1 TEMP              0 ****  ****    0 ROOT
