@<TRIPOS>MOLECULE
molecule
   47    51     1     0     0
SMALL
bcc


@<TRIPOS>ATOM
      1 Cl           0.0000     0.0000     0.0000 cl         1 5GX      -0.094400
      2 C02          1.7350     0.0000     0.0000 ca         1 5GX      -0.116900
      3 C03          2.4400     0.0000     1.2050 ca         1 5GX       0.098000
      4 C04          1.7290    -0.0000     2.5050 cc         1 5GX      -0.274300
      5 C05          0.9340    -0.9990     2.9900 cd         1 5GX      -0.083300
      6 N06          0.4810    -0.6090     4.1990 na         1 5GX       0.071400
      7 C07         -0.4060    -1.3800     5.0730 c3         1 5GX       0.127600
      8 C08          0.2350    -1.5350     6.4280 ca         1 5GX      -0.115300
      9 C09          0.0060    -0.5920     7.4130 ca         1 5GX      -0.099000
     10 C10          0.5940    -0.7330     8.6550 ca         1 5GX      -0.131500
     11 C11          1.4100    -1.8180     8.9140 ca         1 5GX      -0.116000
     12 C12          1.6390    -2.7620     7.9300 ca         1 5GX      -0.131500
     13 C13          1.0480    -2.6220     6.6880 ca         1 5GX      -0.099000
     14 N14          1.0050     0.6590     4.4740 nd         1 5GX      -0.511800
     15 C15          1.7560     1.0260     3.4700 cc         1 5GX       0.369200
     16 C16          3.8480    -0.0010     1.1450 ca         1 5GX       0.000100
     17 N17          4.8220    -0.0010     2.0850 nc         1 5GX      -0.594100
     18 C18          5.9950    -0.0010     1.4990 cd         1 5GX       0.537400
     19 C19          7.2970    -0.0030     2.1990 cd         1 5GX      -0.338200
     20 C20          8.5410    -0.0030     1.6090 cc         1 5GX      -0.097300
     21 N21          9.4560    -0.0030     2.5980 na         1 5GX       0.080400
     22 C22         10.9100    -0.0040     2.4200 c3         1 5GX       0.061600
     23 N23          8.7800    -0.0030     3.8230 nc         1 5GX      -0.516800
     24 C24          7.4940     0.0030     3.5970 cd         1 5GX       0.396600
     25 C25          6.4110     0.0120     4.6430 c3         1 5GX      -0.108400
     26 N26          5.8320    -0.0010     0.1380 na         1 5GX      -0.369000
     27 C27          4.4740    -0.0000    -0.1120 ca         1 5GX       0.413800
     28 N28          3.7520     0.0010    -1.2210 nb         1 5GX      -0.696000
     29 C29          2.4340    -0.0050    -1.1940 ca         1 5GX       0.449200
     30 H29          1.8860    -0.0150    -2.1290 h4         1 5GX       0.037100
     31 H05          0.7890    -1.9730     2.5400 h4         1 5GX       0.174000
     32 H15          2.2980     1.9610     3.3890 h4         1 5GX       0.055100
     33 H071        -1.3500    -0.8600     5.1770 h1         1 5GX       0.064200
     34 H072        -0.5780    -2.3580     4.6400 h1         1 5GX       0.064200
     35 H09         -0.6330     0.2590     7.2100 ha         1 5GX       0.133500
     36 H13          1.2270    -3.3610     5.9170 ha         1 5GX       0.133500
     37 H10          0.4150     0.0060     9.4270 ha         1 5GX       0.131500
     38 H11          1.8720    -1.9280     9.8880 ha         1 5GX       0.130000
     39 H12          2.2780    -3.6130     8.1330 ha         1 5GX       0.131500
     40 H26          6.5620    -0.0010    -0.5470 hn         1 5GX       0.308700
     41 H20          8.7450     0.1240     0.5530 h4         1 5GX       0.167000
     42 H221        11.3920    -0.0600     3.3890 h1         1 5GX       0.058033
     43 H222        11.2010    -0.8590     1.8230 h1         1 5GX       0.058033
     44 H223        11.2130     0.9070     1.9180 h1         1 5GX       0.058033
     45 H251         5.8390     0.9290     4.5640 hc         1 5GX       0.061033
     46 H252         6.8590    -0.0490     5.6280 hc         1 5GX       0.061033
     47 H253         5.7550    -0.8370     4.4920 hc         1 5GX       0.061033
@<TRIPOS>BOND
     1     1     2 1
     2     2     3 ar
     3     2    29 ar
     4     3     4 1
     5     3    16 ar
     6     4     5 2
     7     4    15 1
     8     5     6 1
     9     6     7 1
    10     6    14 1
    11     7     8 1
    12     8     9 ar
    13     8    13 ar
    14     9    10 ar
    15    10    11 ar
    16    11    12 ar
    17    12    13 ar
    18    14    15 2
    19    16    17 1
    20    16    27 ar
    21    17    18 2
    22    18    19 1
    23    18    26 1
    24    19    20 2
    25    19    24 1
    26    20    21 1
    27    21    22 1
    28    21    23 1
    29    23    24 2
    30    24    25 1
    31    26    27 1
    32    27    28 ar
    33    28    29 ar
    34    29    30 1
    35     5    31 1
    36    15    32 1
    37     7    33 1
    38     7    34 1
    39     9    35 1
    40    13    36 1
    41    10    37 1
    42    11    38 1
    43    12    39 1
    44    26    40 1
    45    20    41 1
    46    22    42 1
    47    22    43 1
    48    22    44 1
    49    25    45 1
    50    25    46 1
    51    25    47 1
@<TRIPOS>SUBSTRUCTURE
     1 5GX         1 TEMP              0 ****  ****    0 ROOT
