@<TRIPOS>MOLECULE
molecule
   49    50     1     0     0
SMALL
bcc


@<TRIPOS>ATOM
      1 N01          0.0000     0.0000     0.0000 nv         1 5GY      -1.054500
      2 C02          1.3850     0.0000     0.0000 ca         1 5GY       0.735200
      3 C03          2.0950     0.0000     1.2020 ca         1 5GY      -0.403900
      4 C04          1.3730    -0.0010     2.5250 c3         1 5GY       0.087600
      5 N05          1.5330    -1.3080     3.1680 na         1 5GY       0.034900
      6 C06          2.4640    -1.5220     4.0350 cc         1 5GY      -0.295700
      7 C07          3.4760    -0.5000     4.4840 c3         1 5GY       0.237400
      8 O08          4.7850    -1.0710     4.4330 oh         1 5GY      -0.589800
      9 C09          3.1630    -0.0670     5.9170 c3         1 5GY       0.120900
     10 F10          4.0430     0.9520     6.2990 f          1 5GY      -0.274300
     11 S11          2.3830    -3.1330     4.6020 ss         1 5GY      -0.057800
     12 C12          0.9970    -3.4400     3.5580 cc         1 5GY      -0.093400
     13 C13          0.2460    -4.7420     3.4410 c3         1 5GY      -0.004100
     14 C14          0.8810    -5.5990     2.3440 c3         1 5GY       0.235400
     15 O15          0.1690    -6.8340     2.2330 os         1 5GY      -0.611200
     16 P16          0.5640    -7.9810     1.1750 p5         1 5GY       1.435800
     17 O17         -0.3630    -9.2750     1.4170 os         1 5GY      -0.710800
     18 P18         -0.2350   -10.8310     1.0240 p5         1 5GY       1.300900
     19 O19          0.3160   -10.9510    -0.3450 o          1 5GY      -0.648833
     20 O20          0.7490   -11.5680     2.0640 o          1 5GY      -0.648833
     21 O21         -1.6890   -11.5200     1.0800 o          1 5GY      -0.648833
     22 O22          0.3400    -7.4320    -0.3220 o          1 5GY      -0.841000
     23 O23          1.9860    -8.3510     1.3560 o          1 5GY      -0.841000
     24 C24          0.7300    -2.3150     2.8890 cd         1 5GY      -0.056600
     25 C25         -0.4030    -2.2040     1.9010 c3         1 5GY      -0.027800
     26 C26          3.4750     0.0000     1.1500 ca         1 5GY       0.496200
     27 N27          4.0760     0.0010    -0.0320 nb         1 5GY      -0.759000
     28 C28          3.3780     0.0020    -1.1490 ca         1 5GY       0.711300
     29 C29          4.1070     0.0030    -2.4690 c3         1 5GY      -0.122400
     30 N30          2.0610    -0.0040    -1.1460 nb         1 5GY      -0.779000
     31 H1          -0.5000    -0.6950    -0.5180 hn         1 5GY       0.441800
     32 H2          -0.5000     0.7360     0.4580 hn         1 5GY       0.441800
     33 H3           1.7880     0.7690     3.1640 h1         1 5GY       0.059200
     34 H4           0.3200     0.1940     2.3620 h1         1 5GY       0.059200
     35 H5           3.4340     0.3620     3.8290 h1         1 5GY       0.025700
     36 H6           5.4290    -0.3940     4.5580 ho         1 5GY       0.395000
     37 H7           2.1440     0.2980     5.9690 h1         1 5GY       0.057200
     38 H8           3.2790    -0.9130     6.5830 h1         1 5GY       0.057200
     39 H9          -0.7880    -4.5410     3.1890 hc         1 5GY       0.052200
     40 H10          0.2920    -5.2710     4.3850 hc         1 5GY       0.052200
     41 H11          1.9150    -5.7990     2.5960 h1         1 5GY       0.030700
     42 H12          0.8350    -5.0690     1.4000 h1         1 5GY       0.030700
     43 H16         -0.0260    -2.3680     0.8990 hc         1 5GY       0.053033
     44 H17         -0.8420    -1.2150     1.9640 hc         1 5GY       0.053033
     45 H18         -1.1560    -2.9480     2.1300 hc         1 5GY       0.053033
     46 H19          4.0590    -0.0000     2.0620 h4         1 5GY       0.038100
     47 H20          3.9560    -0.9480    -2.9650 hc         1 5GY       0.057700
     48 H21          5.1650     0.1560    -2.2970 hc         1 5GY       0.057700
     49 H22          3.7230     0.8010    -3.0920 hc         1 5GY       0.057700
@<TRIPOS>BOND
     1    19    18 1
     2    21    18 1
     3     8     7 1
     4    18    20 1
     5    18    17 1
     6     9     7 1
     7     9    10 1
     8     7     6 1
     9    17    16 1
    10    11     6 1
    11    11    12 1
    12     6     5 2
    13    14    13 1
    14    14    15 1
    15    12    13 1
    16    12    24 2
    17    16    15 1
    18    16    23 1
    19    16    22 1
    20     5    24 1
    21     5     4 1
    22     1     2 1
    23    24    25 1
    24     4     3 1
    25     2     3 ar
    26     2    30 ar
    27     3    26 ar
    28    30    28 ar
    29    26    27 ar
    30    28    27 ar
    31    28    29 1
    32     1    31 1
    33     1    32 1
    34     4    33 1
    35     4    34 1
    36     7    35 1
    37     8    36 1
    38     9    37 1
    39     9    38 1
    40    13    39 1
    41    13    40 1
    42    14    41 1
    43    14    42 1
    44    25    43 1
    45    25    44 1
    46    25    45 1
    47    26    46 1
    48    29    47 1
    49    29    48 1
    50    29    49 1
@<TRIPOS>SUBSTRUCTURE
     1 5GY         1 TEMP              0 ****  ****    0 ROOT
