@<TRIPOS>MOLECULE
5GZ
   50    51     1     0     0
SMALL
bcc


@<TRIPOS>ATOM
      1 Cl           0.0000     0.0000     0.0000 cl         1 5GZ       0.037600
      2 O01          1.9990    -6.1180    -3.2180 o          1 5GZ      -0.587800
      3 C03          2.5230    -3.6170    -3.3200 ca         1 5GZ      -0.196500
      4 C04          2.4710    -2.4390    -4.0420 ca         1 5GZ       0.049500
      5 C05          2.5060    -1.2230    -3.3880 ca         1 5GZ      -0.198000
      6 C06          2.6050    -3.5800    -1.9400 ca         1 5GZ       0.049500
      7 C07          2.6380    -2.3680    -1.2800 ca         1 5GZ      -0.198000
      8 C08          2.5920    -1.1840    -2.0030 ca         1 5GZ       0.207100
      9 O09          2.6270     0.0100    -1.3570 os         1 5GZ      -0.202200
     10 C10          2.7120     0.0000     0.0000 ca         1 5GZ       0.199100
     11 C11          3.9540     0.0000     0.6180 ca         1 5GZ      -0.461200
     12 N12          5.1870     0.0130    -0.1990 no         1 5GZ       1.050200
     13 O13          6.2780     0.0130     0.3440 o          1 5GZ      -0.442000
     14 O14          5.1130     0.0220    -1.4150 o          1 5GZ      -0.442000
     15 C15          4.0370    -0.0100     1.9970 ca         1 5GZ       0.001000
     16 C16          2.8850    -0.0210     2.7610 ca         1 5GZ      -0.113000
     17 C17          1.6450    -0.0220     2.1480 ca         1 5GZ      -0.027000
     18 C18          1.5560    -0.0060     0.7700 ca         1 5GZ      -0.092600
     19 N20          4.0470    -5.5880    -4.4900 n7         1 5GZ      -0.582100
     20 C21          4.9770    -5.8710    -3.3950 c3         1 5GZ       0.214800
     21 C22          6.2140    -6.5830    -3.9470 c3         1 5GZ       0.138800
     22 N23          7.1460    -6.8660    -2.8480 n3         1 5GZ      -0.537600
     23 C24          8.2300    -7.7540    -3.2940 c3         1 5GZ       0.142300
     24 C25          7.7000    -9.1850    -3.4120 c3         1 5GZ      -0.000100
     25 C26          7.6840    -5.6230    -2.2810 c3         1 5GZ       0.142300
     26 C27          8.3190    -5.9170    -0.9190 c3         1 5GZ      -0.000100
     27 O28          1.8550    -4.9260    -5.4110 o          1 5GZ      -0.587800
     28 H04          2.4040    -2.4700    -5.1230 ha         1 5GZ       0.124000
     29 H05          2.4680    -0.3010    -3.9550 ha         1 5GZ       0.123500
     30 H06          2.6400    -4.5040    -1.3750 ha         1 5GZ       0.124000
     31 H07          2.7030    -2.3410    -0.1990 ha         1 5GZ       0.123500
     32 H15          5.0070    -0.0100     2.4800 ha         1 5GZ       0.138000
     33 H16          2.9540    -0.0310     3.8430 ha         1 5GZ       0.122000
     34 H17          0.7440    -0.0310     2.7490 ha         1 5GZ       0.123000
     35 HN20         4.3500    -5.6780    -5.4390 hn         1 5GZ       0.349800
     36 H21          4.4910    -6.5050    -2.6630 h1         1 5GZ       0.023700
     37 H21A         5.2750    -4.9410    -2.9250 h1         1 5GZ       0.023700
     38 H22          5.9160    -7.5120    -4.4170 h1         1 5GZ       0.014700
     39 H22A         6.7000    -5.9480    -4.6780 h1         1 5GZ       0.014700
     40 H24          9.0380    -7.7270    -2.5730 h1         1 5GZ       0.011700
     41 H24A         8.5950    -7.4230    -4.2580 h1         1 5GZ       0.011700
     42 H25          8.4840    -9.8840    -3.1460 hc         1 5GZ       0.007367
     43 H25A         7.3830    -9.3690    -4.4320 hc         1 5GZ       0.007367
     44 H25B         6.8580    -9.3150    -2.7430 hc         1 5GZ       0.007367
     45 H26          8.4340    -5.2160    -2.9480 h1         1 5GZ       0.011700
     46 H26A         6.8820    -4.9050    -2.1580 h1         1 5GZ       0.011700
     47 H27          7.8190    -6.7630    -0.4620 hc         1 5GZ       0.007367
     48 H27A         8.2180    -5.0490    -0.2790 hc         1 5GZ       0.007367
     49 H27B         9.3690    -6.1480    -1.0520 hc         1 5GZ       0.007367
     50 S02          2.4810    -5.1650    -4.1580 sy         1 5GZ       1.045200
@<TRIPOS>BOND
     1     1    18 1   
     2     2    50 2   
     3     3     4 ar  
     4     3     6 ar  
     5     3    50 1   
     6     4     5 ar  
     7     4    28 1   
     8     5     8 ar  
     9     5    29 1   
    10     6     7 ar  
    11     6    30 1   
    12     7     8 ar  
    13     7    31 1   
    14     8     9 1   
    15     9    10 1   
    16    10    11 ar  
    17    10    18 ar  
    18    11    12 1   
    19    11    15 ar  
    20    12    13 1   
    21    12    14 1   
    22    15    16 ar  
    23    15    32 1   
    24    16    17 ar  
    25    16    33 1   
    26    17    18 ar  
    27    17    34 1   
    28    19    20 1   
    29    19    35 1   
    30    19    50 1   
    31    20    21 1   
    32    20    36 1   
    33    20    37 1   
    34    21    22 1   
    35    21    38 1   
    36    21    39 1   
    37    22    23 1   
    38    22    25 1   
    39    23    24 1   
    40    23    40 1   
    41    23    41 1   
    42    24    42 1   
    43    24    43 1   
    44    24    44 1   
    45    25    26 1   
    46    25    45 1   
    47    25    46 1   
    48    26    47 1   
    49    26    48 1   
    50    26    49 1   
    51    27    50 2   
@<TRIPOS>SUBSTRUCTURE
     1 5GZ         1 TEMP              0 ****  ****    0 ROOT
