@<TRIPOS>MOLECULE
5H
   38    40     1     0     0
SMALL
bcc


@<TRIPOS>ATOM
      1 S19          0.0000     0.0000     0.0000 sy         1 5H        1.048200
      2 O20          1.4210     0.0000     0.0000 o          1 5H       -0.554800
      3 O21         -0.8230     0.0000     1.1590 o          1 5H       -0.554800
      4 N22         -0.4500     1.3350    -0.8710 n7         1 5H       -0.447100
      5 C24         -0.4780    -1.4200    -0.9270 ca         1 5H       -0.165500
      6 C25         -1.7280    -1.9810    -0.7380 ca         1 5H        0.009500
      7 C26         -2.1040    -3.0930    -1.4680 ca         1 5H       -0.129000
      8 C27         -1.2290    -3.6490    -2.3810 ca         1 5H       -0.037000
      9 C29          0.0230    -3.0910    -2.5670 ca         1 5H       -0.129000
     10 C30          0.3970    -1.9770    -1.8400 ca         1 5H        0.009500
     11 C1          -4.5240    -0.0090    -2.6790 c3         1 5H        0.060900
     12 C2          -5.9680     0.2970    -2.9810 ca         1 5H       -0.112300
     13 C4          -6.8600     0.5120    -1.9460 ca         1 5H       -0.084000
     14 C5          -8.1830     0.7990    -2.2230 ca         1 5H       -0.079000
     15 C6          -7.7270     0.6440    -4.5690 ca         1 5H       -0.079000
     16 C8          -8.6190     0.8590    -3.5340 ca         1 5H        0.039100
     17 Br1        -10.4310     1.2420    -3.9130 br         1 5H       -0.121100
     18 N1          -1.7980     1.5400    -1.1920 n          1 5H        0.117200
     19 C9          -2.5610     2.2400    -0.3320 cs         1 5H        0.336000
     20 C14         -3.7310     1.2970    -2.6070 c3         1 5H       -0.012600
     21 C7          -2.2580     1.0350    -2.3260 c          1 5H        0.577500
     22 C3          -6.4020     0.3630    -4.2920 ca         1 5H       -0.084000
     23 S1          -4.1700     2.2640    -1.1070 ss         1 5H       -0.247700
     24 S2          -2.0970     2.9430     1.1580 s          1 5H       -0.367400
     25 O1          -1.5540     0.4060    -3.0870 o          1 5H       -0.586500
     26 H22          0.2370     2.0110    -1.1420 hn         1 5H        0.375800
     27 H25         -2.4140    -1.5450    -0.0220 ha         1 5H        0.121500
     28 H26         -3.0840    -3.5310    -1.3210 ha         1 5H        0.110500
     29 H27         -1.5240    -4.5210    -2.9520 ha         1 5H        0.103000
     30 H29          0.7100    -3.5270    -3.2830 ha         1 5H        0.110500
     31 H30          1.3780    -1.5400    -1.9860 ha         1 5H        0.121500
     32 H11         -4.1160    -0.6370    -3.4620 hc         1 5H        0.039200
     33 H12         -4.4550    -0.5270    -1.7290 hc         1 5H        0.039200
     34 H4          -6.5190     0.4650    -0.9190 ha         1 5H        0.117000
     35 H5          -8.8820     0.9670    -1.4120 ha         1 5H        0.120000
     36 H6          -8.0670     0.6930    -5.5960 ha         1 5H        0.120000
     37 H14         -3.8560     1.8910    -3.5030 h1         1 5H        0.099700
     38 H3          -5.7030     0.1950    -5.1030 ha         1 5H        0.117000
@<TRIPOS>BOND
     1     1     2 2   
     2     1     3 2   
     3     1     4 1   
     4     1     5 1   
     5     4    18 1   
     6     4    26 1   
     7     5     6 ar  
     8     5    10 ar  
     9     6     7 ar  
    10     6    27 1   
    11     7     8 ar  
    12     7    28 1   
    13     8     9 ar  
    14     8    29 1   
    15     9    10 ar  
    16     9    30 1   
    17    10    31 1   
    18    11    12 1   
    19    11    20 1   
    20    11    32 1   
    21    11    33 1   
    22    12    13 ar  
    23    12    22 ar  
    24    13    14 ar  
    25    13    34 1   
    26    14    16 ar  
    27    14    35 1   
    28    15    16 ar  
    29    15    22 ar  
    30    15    36 1   
    31    16    17 1   
    32    18    19 1   
    33    18    21 1   
    34    19    23 1   
    35    19    24 2   
    36    20    21 1   
    37    20    23 1   
    38    20    37 1   
    39    21    25 2   
    40    22    38 1   
@<TRIPOS>SUBSTRUCTURE
     1 5H          1 TEMP              0 ****  ****    0 ROOT
