@<TRIPOS>MOLECULE
molecule
   17    18     1     0     0
SMALL
bcc


@<TRIPOS>ATOM
      1 O10          0.0000     0.0000     0.0000 oh         1 5H1      -0.521100
      2 C5           1.3600     0.0000     0.0000 ca         1 5H1       0.073100
      3 C6           2.0540     0.0000     1.2070 ca         1 5H1      -0.129000
      4 C7           3.4310    -0.0000     1.2240 ca         1 5H1      -0.133000
      5 C8           4.1420    -0.0000     0.0300 ca         1 5H1      -0.046200
      6 N1           5.4870    -0.0010    -0.2720 na         1 5H1      -0.184400
      7 C4           2.0480    -0.0070    -1.1980 ca         1 5H1      -0.108000
      8 C9           3.4440    -0.0020    -1.1910 ca         1 5H1      -0.092800
      9 C3           4.4640    -0.0030    -2.2420 cc         1 5H1      -0.200200
     10 C2           5.6590    -0.0020    -1.6290 cd         1 5H1      -0.099100
     11 HO10        -0.3140     0.8870    -0.0600 ho         1 5H1       0.414000
     12 H6           1.5050    -0.0000     2.1410 ha         1 5H1       0.140000
     13 H7           3.9600    -0.0000     2.1690 ha         1 5H1       0.127000
     14 H4           1.5110    -0.1350    -2.1300 ha         1 5H1       0.142000
     15 H3           4.2890    -0.0040    -3.3110 ha         1 5H1       0.156000
     16 H2           6.6170    -0.0030    -2.1340 h4         1 5H1       0.165000
     17 HN1          6.2270    -0.0000     0.4010 hn         1 5H1       0.295700
@<TRIPOS>BOND
     1     2     1 1
     2     1    11 1
     3     3     2 ar
     4     7     2 ar
     5     4     3 ar
     6     3    12 1
     7     5     4 ar
     8     4    13 1
     9     6     5 1
    10     5     8 ar
    11     6    10 1
    12     8     7 ar
    13     7    14 1
    14     9     8 1
    15    10     9 2
    16     9    15 1
    17    10    16 1
    18     6    17 1
@<TRIPOS>SUBSTRUCTURE
     1 5H1         1 TEMP              0 ****  ****    0 ROOT
