@<TRIPOS>MOLECULE
5H1
   17    18     1     0     0
SMALL
bcc


@<TRIPOS>ATOM
      1 O10         0.0030    0.1100    0.1460 oh        1 5H1     -0.503100
      2 C5          1.3780    0.0740    0.0390 ca        1 5H1      0.099100
      3 C6          2.0770   -0.0210    1.2680 ca        1 5H1     -0.135000
      4 C7          3.4590   -0.0650    1.2880 ca        1 5H1     -0.112000
      5 C8          4.1430   -0.0120    0.0620 ca        1 5H1     -0.079200
      6 N1          5.5120   -0.0360   -0.2240 na        1 5H1     -0.192400
      7 C4          2.0330    0.1280   -1.1900 ca        1 5H1     -0.174000
      8 C9          3.4280    0.0860   -1.1910 ca        1 5H1     -0.057800
      9 C3          4.4280    0.1180   -2.2320 cc        1 5H1     -0.198200
     10 C2          5.6710    0.0420   -1.6090 cd        1 5H1     -0.100100
     11 HO10       -0.3620    0.1750   -0.7480 ho        1 5H1      0.416000
     12 H6          1.4970   -0.0600    2.2010 ha        1 5H1      0.149000
     13 H7          4.0050   -0.1390    2.2380 ha        1 5H1      0.134000
     14 H4          1.4750    0.2020   -2.1320 ha        1 5H1      0.137000
     15 H3          4.2360    0.1880   -3.2980 ha        1 5H1      0.157000
     16 H2          6.6690    0.0380   -2.0520 h4        1 5H1      0.164000
     17 HN1         6.2330   -0.0990    0.4420 hn        1 5H1      0.297700
@<TRIPOS>BOND
     1    1    2 1   
     2    1   11 1   
     3    2    3 ar  
     4    2    7 ar  
     5    3    4 ar  
     6    3   12 1   
     7    4    5 ar  
     8    4   13 1   
     9    5    6 1   
    10    5    8 ar  
    11    6   10 1   
    12    6   17 1   
    13    7    8 ar  
    14    7   14 1   
    15    8    9 1   
    16    9   10 2   
    17    9   15 1   
    18   10   16 1   
@<TRIPOS>SUBSTRUCTURE
     1 5H1         1 TEMP              0 ****  ****    0 ROOT
