@<TRIPOS>MOLECULE
molecule
   48    52     1     0     0
SMALL
bcc


@<TRIPOS>ATOM
      1 C7           0.0000     0.0000     0.0000 ca         1 5H2      -0.137000
      2 C9           0.0020     0.0320     2.3920 ca         1 5H2      -0.057000
      3 C10          1.4100    -0.0010     2.3950 ca         1 5H2       0.156100
      4 O4           0.5050    -1.2110    -2.1970 o          1 5H2      -0.599000
      5 C6           1.3900     0.0000     0.0000 ca         1 5H2       0.083600
      6 C1           1.7110    -1.4920    -4.5110 c3         1 5H2       0.158700
      7 O2           2.3040    -0.7510    -3.4120 os         1 5H2      -0.438900
      8 C3           1.5920    -0.6740    -2.2720 c          1 5H2       0.751100
      9 C8          -0.6960     0.0210     1.1930 ca         1 5H2      -0.089000
     10 O11          2.0440    -0.0670     3.5890 os         1 5H2      -0.352900
     11 C12          2.2080     1.0990     4.3990 c3         1 5H2       0.158400
     12 C13          0.9090     1.8930     4.4860 c3         1 5H2      -0.055100
     13 C14         -0.2700     0.9580     4.6900 cc         1 5H2      -0.118300
     14 C15         -0.6820     0.0970     3.7020 cd         1 5H2       0.018900
     15 S16         -2.0710    -0.8270     4.2350 ss         1 5H2      -0.074800
     16 C17         -2.0410    -0.0320     5.8030 cd         1 5H2      -0.097600
     17 C18         -1.0250     0.8720     5.8400 cc         1 5H2      -0.091000
     18 C19         -2.9780    -0.2960     6.9040 cd         1 5H2       0.471000
     19 N20         -2.8340     0.0690     8.1630 nc         1 5H2      -0.341000
     20 N21         -3.8450    -0.3290     8.8490 nc         1 5H2      -0.348000
     21 C22         -4.6890    -0.9660     8.0820 cd         1 5H2       0.366400
     22 N23         -4.1750    -0.9650     6.8180 na         1 5H2      -0.262800
     23 C24         -4.7480    -1.5310     5.6700 ca         1 5H2      -0.014200
     24 C25         -5.9360    -1.0240     5.1630 ca         1 5H2      -0.107000
     25 C26         -6.4980    -1.5840     4.0320 ca         1 5H2      -0.118000
     26 C27         -5.8780    -2.6480     3.4050 ca         1 5H2      -0.108000
     27 C28         -4.6940    -3.1570     3.9060 ca         1 5H2      -0.110000
     28 C29         -4.1230    -2.5970     5.0340 ca         1 5H2       0.020400
     29 Cl          -2.6320    -3.2300     5.6600 cl         1 5H2      -0.058400
     30 C31          2.0950     0.0000     1.1990 ca         1 5H2      -0.177000
     31 H1          -0.5390    -0.0020    -0.9390 ha         1 5H2       0.171000
     32 H2           2.9430     0.5060    -1.2990 hn         1 5H2       0.335500
     33 H3           1.4650    -2.4940    -4.1800 h1         1 5H2       0.052033
     34 H4           0.8090    -0.9900    -4.8400 h1         1 5H2       0.052033
     35 H5           2.4150    -1.5460    -5.3320 h1         1 5H2       0.052033
     36 H6          -1.7800     0.0210     1.1920 ha         1 5H2       0.142000
     37 H7           2.4660     0.7740     5.4000 h1         1 5H2       0.057200
     38 H8           2.9510     1.7290     3.9260 h1         1 5H2       0.057200
     39 H9           0.7680     2.4080     3.5430 hc         1 5H2       0.062700
     40 H10          0.9720     2.5440     5.3490 hc         1 5H2       0.062700
     41 H11         -0.8210     1.4780     6.7140 ha         1 5H2       0.166000
     42 H12         -5.6280    -1.4080     8.3920 h5         1 5H2       0.076100
     43 H13         -6.4230    -0.1900     5.6540 ha         1 5H2       0.153000
     44 H14         -7.4260    -1.1880     3.6370 ha         1 5H2       0.145000
     45 H15         -6.3220    -3.0870     2.5190 ha         1 5H2       0.145000
     46 H16         -4.2090    -3.9890     3.4100 ha         1 5H2       0.157000
     47 H17          3.1780    -0.0000     1.1920 ha         1 5H2       0.145000
     48 N5           2.0840    -0.0010    -1.2140 ns         1 5H2      -0.461100
@<TRIPOS>BOND
     1    11    10 1
     2    11    12 1
     3     6     7 1
     4     7     8 1
     5     4     8 2
     6     8    48 1
     7    10     3 1
     8    12    13 1
     9    30     3 ar
    10    30     5 ar
    11    48     5 1
    12     3     2 ar
    13     5     1 ar
    14    13    17 1
    15    13    14 2
    16     2    14 1
    17     2     9 ar
    18    17    16 2
    19     1     9 ar
    20    14    15 1
    21    16    15 1
    22    16    18 1
    23    19    18 2
    24    19    20 1
    25    24    25 ar
    26    24    23 ar
    27    18    22 1
    28    20    21 2
    29    25    26 ar
    30    22    21 1
    31    22    23 1
    32    23    28 ar
    33    26    27 ar
    34    28    27 ar
    35    28    29 1
    36     1    31 1
    37    48    32 1
    38     6    33 1
    39     6    34 1
    40     6    35 1
    41     9    36 1
    42    11    37 1
    43    11    38 1
    44    12    39 1
    45    12    40 1
    46    17    41 1
    47    21    42 1
    48    24    43 1
    49    25    44 1
    50    26    45 1
    51    27    46 1
    52    30    47 1
@<TRIPOS>SUBSTRUCTURE
     1 5H2         1 TEMP              0 ****  ****    0 ROOT
