@<TRIPOS>MOLECULE
molecule
   45    47     1     0     0
SMALL
bcc


@<TRIPOS>ATOM
      1 F23          0.0000     0.0000     0.0000 f          1 5H3      -0.142900
      2 C23          1.3510     0.0000     0.0000 ca         1 5H3       0.133900
      3 C24          2.0430     0.0000     1.1990 ca         1 5H3      -0.171000
      4 C25          3.4250     0.0000     1.1990 ca         1 5H3      -0.102000
      5 C22          2.0440    -0.0050    -1.1980 ca         1 5H3      -0.167000
      6 C21          3.4270    -0.0050    -1.1960 ca         1 5H3      -0.057300
      7 C26          4.1170     0.0000     0.0020 ca         1 5H3      -0.140000
      8 C20          4.1810    -0.0110    -2.5010 c3         1 5H3      -0.037100
      9 C19          4.4360     1.4300    -2.9480 c3         1 5H3       0.159800
     10 N18          5.1730     1.4240    -4.2200 n7         1 5H3      -0.810200
     11 C17          5.4360     2.7940    -4.6810 c3         1 5H3       0.208100
     12 C15          6.1910     2.7480    -5.9850 ca         1 5H3      -0.073300
     13 C14          5.5000     2.7240    -7.1830 ca         1 5H3      -0.146000
     14 C13          6.1880     2.6810    -8.3810 ca         1 5H3      -0.112000
     15 C12          7.5690     2.6630    -8.3850 ca         1 5H3      -0.166000
     16 C16          7.5720     2.7360    -5.9830 ca         1 5H3      -0.095000
     17 C11          8.2670     2.6870    -7.1850 ca         1 5H3       0.165600
     18 N07          9.6640     2.6680    -7.1850 nu         1 5H3      -0.739600
     19 C06         10.3450     1.9250    -6.2410 ce         1 5H3       0.718800
     20 N08          9.6870     1.1470    -5.4220 n2         1 5H3      -0.860100
     21 C05         11.8120     2.0080    -6.1560 cd         1 5H3      -0.154000
     22 S01         12.8360     3.0030    -7.1810 ss         1 5H3      -0.094800
     23 C02         14.2420     2.4600    -6.3810 cd         1 5H3      -0.094100
     24 C03         13.9370     1.5910    -5.4130 cc         1 5H3      -0.160000
     25 C04         12.5920     1.3300    -5.2670 cc         1 5H3      -0.123000
     26 H1           1.5010     0.0000     2.1370 ha         1 5H3       0.144000
     27 H2           3.9670     0.0020     2.1370 ha         1 5H3       0.136000
     28 H3           1.5040    -0.0090    -2.1370 ha         1 5H3       0.144000
     29 H4           5.2000     0.0010     0.0030 ha         1 5H3       0.138000
     30 H5           5.1270    -0.5210    -2.3690 hc         1 5H3       0.059200
     31 H6           3.5950    -0.5250    -3.2540 hc         1 5H3       0.059200
     32 H7           3.4900     1.9400    -3.0820 h1         1 5H3       0.034700
     33 H8           5.0200     1.9440    -2.1950 h1         1 5H3       0.034700
     34 H9           4.6400     0.9360    -4.9120 hn         1 5H3       0.355800
     35 H11          4.4960     3.3140    -4.8260 h1         1 5H3       0.036700
     36 H12          6.0270     3.3170    -3.9400 h1         1 5H3       0.036700
     37 H13          4.4170     2.7380    -7.1820 ha         1 5H3       0.125000
     38 H14          5.6440     2.6620    -9.3180 ha         1 5H3       0.129000
     39 H15          8.1080     2.6270    -9.3240 ha         1 5H3       0.127000
     40 H16          8.1130     2.7550    -5.0440 ha         1 5H3       0.158000
     41 H17         10.1700     3.1480    -7.9030 hn         1 5H3       0.448800
     42 H18         10.1800     0.6090    -4.7380 hn         1 5H3       0.408400
     43 H19         15.2490     2.7770    -6.6260 h4         1 5H3       0.174000
     44 H20         14.6900     1.1310    -4.7850 ha         1 5H3       0.153000
     45 H21         12.1950     0.6480    -4.5250 ha         1 5H3       0.155000
@<TRIPOS>BOND
     1    24    23 2   
     2    24    25 1   
     3    23    22 1   
     4    25    21 2   
     5    22    21 1   
     6    21    19 1   
     7    19    20 2   
     8    19    18 1   
     9    15    14 ar  
    10    15    17 ar  
    11    14    13 ar  
    12    18    17 1   
    13    17    16 ar  
    14    13    12 ar  
    15    16    12 ar  
    16    12    11 1   
    17    11    10 1   
    18    10     9 1   
    19     9     8 1   
    20     7     4 ar  
    21     7     6 ar  
    22     4     3 ar  
    23     8     6 1   
    24     6     5 ar  
    25     3     2 ar  
    26     5     2 ar  
    27     2     1 1   
    28     3    26 1   
    29     4    27 1   
    30     5    28 1   
    31     7    29 1   
    32     8    30 1   
    33     8    31 1   
    34     9    32 1   
    35     9    33 1   
    36    10    34 1   
    37    11    35 1   
    38    11    36 1   
    39    13    37 1   
    40    14    38 1   
    41    15    39 1   
    42    16    40 1   
    43    18    41 1   
    44    20    42 1   
    45    23    43 1   
    46    24    44 1   
    47    25    45 1   
@<TRIPOS>SUBSTRUCTURE
     1 5H3         1 TEMP              0 ****  ****    0 ROOT
