@<TRIPOS>MOLECULE
molecule
   51    53     1     0     0
SMALL
bcc


@<TRIPOS>ATOM
      1 F33          0.0000     0.0000     0.0000 f          1 5H4      -0.141900
      2 C33          1.3510     0.0000     0.0000 ca         1 5H4       0.134900
      3 C34          2.0440     0.0000     1.1990 ca         1 5H4      -0.173000
      4 C35          3.4260    -0.0070     1.1970 ca         1 5H4      -0.103000
      5 C36          4.1160    -0.0130    -0.0010 ca         1 5H4      -0.145000
      6 C32          2.0440    -0.0070    -1.1990 ca         1 5H4      -0.161000
      7 C31          3.4260    -0.0130    -1.1980 ca         1 5H4      -0.057300
      8 C22          4.1800    -0.0180    -2.5030 c3         1 5H4      -0.037100
      9 C21          4.4290    -1.4620    -2.9410 c3         1 5H4       0.160800
     10 N18          5.1640    -1.4680    -4.2130 n3         1 5H4      -0.724600
     11 C19          6.5150    -0.9170    -4.0430 c3         1 5H4       0.153800
     12 C20          7.0920    -0.5510    -5.4120 c3         1 5H4      -0.094100
     13 C17          5.2150    -2.8210    -4.7850 c3         1 5H4       0.209100
     14 C15          3.8510    -3.2000    -5.3020 ca         1 5H4      -0.066300
     15 C14          3.4540    -2.7960    -6.5640 ca         1 5H4      -0.126000
     16 C13          2.2040    -3.1420    -7.0420 ca         1 5H4      -0.116000
     17 C12          1.3470    -3.8910    -6.2610 ca         1 5H4      -0.116000
     18 C11          1.7430    -4.2980    -4.9920 ca         1 5H4       0.165600
     19 C16          3.0020    -3.9550    -4.5180 ca         1 5H4      -0.168000
     20 N07          0.8780    -5.0590    -4.1990 nu         1 5H4      -0.738600
     21 C06         -0.4760    -4.7830    -4.1940 ce         1 5H4       0.722800
     22 N08         -0.9320    -3.7380    -4.8330 n2         1 5H4      -0.867100
     23 C05         -1.4030    -5.6660    -3.4700 cd         1 5H4      -0.153000
     24 S01         -0.9460    -7.1040    -2.5660 ss         1 5H4      -0.096800
     25 C02         -2.5700    -7.4050    -2.1360 cd         1 5H4      -0.093100
     26 C03         -3.3810    -6.4760    -2.6480 cc         1 5H4      -0.160000
     27 C04         -2.7530    -5.4980    -3.3880 cc         1 5H4      -0.121000
     28 H1           1.5030     0.0040     2.1380 ha         1 5H4       0.143000
     29 H2           3.9690    -0.0070     2.1350 ha         1 5H4       0.134000
     30 H3           5.2000    -0.0180    -0.0010 ha         1 5H4       0.132000
     31 H4           1.5030    -0.0070    -2.1370 ha         1 5H4       0.153000
     32 H5           3.5970     0.4940    -3.2590 hc         1 5H4       0.059700
     33 H6           5.1290     0.4890    -2.3740 hc         1 5H4       0.059700
     34 H7           3.4800    -1.9690    -3.0710 h1         1 5H4       0.042200
     35 H8           5.0110    -1.9740    -2.1850 h1         1 5H4       0.042200
     36 H10          7.1490    -1.6560    -3.5690 h1         1 5H4       0.033200
     37 H11          6.4670    -0.0300    -3.4230 h1         1 5H4       0.033200
     38 H12          6.2880    -0.2610    -6.0780 hc         1 5H4       0.039700
     39 H13          7.7850     0.2740    -5.3030 hc         1 5H4       0.039700
     40 H14          7.6120    -1.4070    -5.8250 hc         1 5H4       0.039700
     41 H15          5.9280    -2.8410    -5.6010 h1         1 5H4       0.039700
     42 H16          5.5210    -3.5250    -4.0210 h1         1 5H4       0.039700
     43 H17          4.1250    -2.2080    -7.1790 ha         1 5H4       0.132000
     44 H18          1.8960    -2.8240    -8.0310 ha         1 5H4       0.131000
     45 H19          0.3670    -4.1590    -6.6350 ha         1 5H4       0.153000
     46 H20          3.3140    -4.2710    -3.5300 ha         1 5H4       0.126000
     47 H21          1.2470    -5.7620    -3.5900 hn         1 5H4       0.448800
     48 H22         -1.9130    -3.5390    -4.8300 hn         1 5H4       0.407400
     49 H23         -2.8990    -8.2400    -1.5290 h4         1 5H4       0.174000
     50 H24         -4.4520    -6.4870    -2.4890 ha         1 5H4       0.153000
     51 H25         -3.2810    -4.6800    -3.8630 ha         1 5H4       0.155000
@<TRIPOS>BOND
     1    26    25 2   
     2    26    27 1   
     3    25    24 1   
     4    27    23 2   
     5    24    23 1   
     6    23    21 1   
     7    21    22 2   
     8    21    20 1   
     9    16    17 ar  
    10    16    15 ar  
    11    17    18 ar  
    12    18    20 1   
    13    18    19 ar  
    14    15    14 ar  
    15    19    14 ar  
    16    14    13 1   
    17    13    10 1   
    18    10    11 1   
    19    10     9 1   
    20    11    12 1   
    21     9     8 1   
    22     4     5 ar  
    23     4     3 ar  
    24     5     7 ar  
    25     3     2 ar  
    26     7     8 1   
    27     7     6 ar  
    28     2     6 ar  
    29     2     1 1   
    30     3    28 1   
    31     4    29 1   
    32     5    30 1   
    33     6    31 1   
    34     8    32 1   
    35     8    33 1   
    36     9    34 1   
    37     9    35 1   
    38    11    36 1   
    39    11    37 1   
    40    12    38 1   
    41    12    39 1   
    42    12    40 1   
    43    13    41 1   
    44    13    42 1   
    45    15    43 1   
    46    16    44 1   
    47    17    45 1   
    48    19    46 1   
    49    20    47 1   
    50    22    48 1   
    51    25    49 1   
    52    26    50 1   
    53    27    51 1   
@<TRIPOS>SUBSTRUCTURE
     1 5H4         1 TEMP              0 ****  ****    0 ROOT
