@<TRIPOS>MOLECULE
5H4
   51    53     1     0     0
SMALL
bcc


@<TRIPOS>ATOM
      1 F33          0.0000     0.0000     0.0000 f          1 5H4      -0.127900
      2 C33          1.3510     0.0000     0.0000 ca         1 5H4       0.108900
      3 C34          2.0440     0.0000     1.1990 ca         1 5H4      -0.138000
      4 C35          3.4260    -0.0070     1.1970 ca         1 5H4      -0.073000
      5 C36          4.1160    -0.0130    -0.0010 ca         1 5H4      -0.116000
      6 C32          2.0440    -0.0070    -1.1990 ca         1 5H4      -0.130000
      7 C31          3.4260    -0.0130    -1.1980 ca         1 5H4      -0.063300
      8 C22          4.1800    -0.0180    -2.5030 c3         1 5H4       0.020900
      9 C21          4.4290    -1.4620    -2.9410 c3         1 5H4       0.140800
     10 N18          5.1640    -1.4680    -4.2130 n3         1 5H4      -0.534600
     11 C19          6.5150    -0.9170    -4.0430 c3         1 5H4       0.137800
     12 C20          7.0920    -0.5510    -5.4120 c3         1 5H4      -0.000100
     13 C17          5.2150    -2.8210    -4.7850 c3         1 5H4       0.202100
     14 C15          3.8510    -3.2000    -5.3020 ca         1 5H4      -0.059300
     15 C14          3.4540    -2.7960    -6.5640 ca         1 5H4      -0.102000
     16 C13          2.2040    -3.1420    -7.0420 ca         1 5H4      -0.067000
     17 C12          1.3470    -3.8910    -6.2610 ca         1 5H4      -0.159000
     18 C11          1.7430    -4.2980    -4.9920 ca         1 5H4       0.010600
     19 C16          3.0020    -3.9550    -4.5180 ca         1 5H4      -0.140000
     20 N07          0.8780    -5.0590    -4.1990 nu         1 5H4      -0.337600
     21 C06         -0.4760    -4.7830    -4.1940 ce         1 5H4       0.543800
     22 N08         -0.9320    -3.7380    -4.8330 n2         1 5H4      -0.769100
     23 C05         -1.4030    -5.6660    -3.4700 cc         1 5H4      -0.057000
     24 S01         -0.9460    -7.1040    -2.5660 ss         1 5H4      -0.246800
     25 C02         -2.5700    -7.4050    -2.1360 cc         1 5H4      -0.012100
     26 C03         -3.3810    -6.4760    -2.6480 cd         1 5H4      -0.134000
     27 C04         -2.7530    -5.4980    -3.3880 cd         1 5H4      -0.063000
     28 H1           1.5030     0.0040     2.1380 ha         1 5H4       0.119000
     29 H2           3.9690    -0.0070     2.1350 ha         1 5H4       0.106000
     30 H3           5.2000    -0.0180    -0.0010 ha         1 5H4       0.108000
     31 H4           1.5030    -0.0070    -2.1370 ha         1 5H4       0.126000
     32 H5           3.5970     0.4940    -3.2590 hc         1 5H4       0.030200
     33 H6           5.1290     0.4890    -2.3740 hc         1 5H4       0.030200
     34 H7           3.4800    -1.9690    -3.0710 h1         1 5H4       0.018200
     35 H8           5.0110    -1.9740    -2.1850 h1         1 5H4       0.018200
     36 H10          7.1490    -1.6560    -3.5690 h1         1 5H4       0.012700
     37 H11          6.4670    -0.0300    -3.4230 h1         1 5H4       0.012700
     38 H12          7.8200     0.2430    -5.2960 hc         1 5H4       0.007367
     39 H13          7.5720    -1.4200    -5.8460 hc         1 5H4       0.007367
     40 H14          6.2940    -0.2170    -6.0630 hc         1 5H4       0.007367
     41 H15          5.5210    -3.5250    -4.0210 h1         1 5H4       0.017200
     42 H16          5.9280    -2.8410    -5.6010 h1         1 5H4       0.017200
     43 H17          4.1250    -2.2080    -7.1790 ha         1 5H4       0.111000
     44 H18          1.8960    -2.8240    -8.0310 ha         1 5H4       0.106000
     45 H19          0.3670    -4.1590    -6.6350 ha         1 5H4       0.132000
     46 H20          3.3140    -4.2710    -3.5300 ha         1 5H4       0.113000
     47 H21          1.2470    -5.7620    -3.5900 hn         1 5H4       0.296800
     48 H22         -0.3010    -3.1380    -5.3260 hn         1 5H4       0.354400
     49 H23         -2.8990    -8.2400    -1.5290 h4         1 5H4       0.150000
     50 H24         -4.4520    -6.4870    -2.4890 ha         1 5H4       0.122000
     51 H25         -3.2810    -4.6800    -3.8630 ha         1 5H4       0.144000
@<TRIPOS>BOND
     1     1     2 1   
     2     2     3 ar  
     3     2     6 ar  
     4     3     4 ar  
     5     3    28 1   
     6     4     5 ar  
     7     4    29 1   
     8     5     7 ar  
     9     5    30 1   
    10     6     7 ar  
    11     6    31 1   
    12     7     8 1   
    13     8     9 1   
    14     8    32 1   
    15     8    33 1   
    16     9    10 1   
    17     9    34 1   
    18     9    35 1   
    19    10    11 1   
    20    10    13 1   
    21    11    12 1   
    22    11    36 1   
    23    11    37 1   
    24    12    38 1   
    25    12    39 1   
    26    12    40 1   
    27    13    14 1   
    28    13    41 1   
    29    13    42 1   
    30    14    15 ar  
    31    14    19 ar  
    32    15    16 ar  
    33    15    43 1   
    34    16    17 ar  
    35    16    44 1   
    36    17    18 ar  
    37    17    45 1   
    38    18    19 ar  
    39    18    20 1   
    40    19    46 1   
    41    20    21 1   
    42    20    47 1   
    43    21    22 2   
    44    21    23 1   
    45    22    48 1   
    46    23    24 1   
    47    23    27 2   
    48    24    25 1   
    49    25    26 2   
    50    25    49 1   
    51    26    27 1   
    52    26    50 1   
    53    27    51 1   
@<TRIPOS>SUBSTRUCTURE
     1 5H4         1 TEMP              0 ****  ****    0 ROOT
