@<TRIPOS>MOLECULE
molecule
   51    54     1     0     0
SMALL
bcc


@<TRIPOS>ATOM
      1 C2           0.0000     0.0000     0.0000 c          1 5H5       0.468100
      2 C4           1.5070     0.0000     0.0000 c3         1 5H5       0.079100
      3 C6           2.0170     0.0000     1.4420 c3         1 5H5      -0.127100
      4 C8           3.2260     1.0990    -1.2210 ca         1 5H5       0.121100
      5 C12          6.3340    -2.1490    -2.2830 c3         1 5H5       0.136400
      6 C15          8.7150    -0.2250    -4.0210 cc         1 5H5      -0.131600
      7 C16          9.0900     1.0500    -3.7100 cd         1 5H5       0.290300
      8 C18          7.0700     0.8020    -2.9880 cc         1 5H5       0.469000
      9 C19          5.7370     0.9610    -2.3690 ca         1 5H5      -0.153500
     10 C21          3.7000     2.1570    -1.9860 ca         1 5H5      -0.140000
     11 C24         12.6420    -0.1340    -4.5470 cc         1 5H5       0.573900
     12 C27         10.2920     2.4720    -3.7350 c3         1 5H5       0.042000
     13 N1          -0.6740    -1.0550     0.4980 nz         1 5H5      -0.683400
     14 O3          -0.6060     0.9520    -0.4460 o          1 5H5      -0.356100
     15 O7           1.9830     1.1660    -0.6740 os         1 5H5      -0.292900
     16 C9           4.0080    -0.0300    -1.0150 ca         1 5H5      -0.244000
     17 C10          5.2700    -0.1000    -1.5690 ca         1 5H5       0.172100
     18 O11          6.1110    -1.1270    -1.3110 os         1 5H5      -0.343900
     19 C13          6.5580    -1.5400    -3.6700 c3         1 5H5      -0.011700
     20 N14          7.4430    -0.3800    -3.5750 na         1 5H5      -0.209900
     21 N17          8.0560     1.6500    -3.0800 nd         1 5H5      -0.729000
     22 C20          4.9540     2.0900    -2.5610 ca         1 5H5      -0.037000
     23 C22         10.5240    -0.0100    -4.1140 cd         1 5H5       0.273500
     24 N23         11.5120    -0.8250    -4.4240 nc         1 5H5      -0.780000
     25 N25         12.4010     1.1310    -4.3220 nd         1 5H5      -0.582800
     26 N26         11.0300     1.2430    -4.0380 na         1 5H5      -0.109400
     27 C28         10.8690     3.1150    -2.4720 c3         1 5H5      -0.088100
     28 C29         10.4220     3.4460    -4.9070 c3         1 5H5      -0.088100
     29 H1           1.8680    -0.8850    -0.5110 h1         1 5H5       0.084700
     30 H2           1.1750     0.0060     2.1230 hc         1 5H5       0.072700
     31 H3           2.6240     0.8810     1.6100 hc         1 5H5       0.072700
     32 H4           2.6140    -0.8880     1.6140 hc         1 5H5       0.072700
     33 H5           5.4440    -2.7640    -2.3290 h1         1 5H5       0.071200
     34 H6           7.2350    -2.6820    -2.0040 h1         1 5H5       0.071200
     35 H7           9.3160    -0.9690    -4.5300 h4         1 5H5       0.268000
     36 H8           3.0850     3.0360    -2.1320 ha         1 5H5       0.163000
     37 H9          13.6100    -0.5530    -4.7950 h5         1 5H5       0.080100
     38 H10          9.2470     2.2360    -3.5750 h1         1 5H5       0.281700
     39 H11         -0.9380    -0.8650     1.4450 hn         1 5H5       0.481133
     40 H12         -1.4940    -1.2170    -0.0520 hn         1 5H5       0.481133
     41 H13          3.6310    -0.8510    -0.4170 ha         1 5H5       0.129000
     42 H14          7.0460    -2.2840    -4.2880 h1         1 5H5       0.078200
     43 H15          5.6000    -1.2000    -4.0450 h1         1 5H5       0.078200
     44 H16          5.3240     2.9150    -3.1580 ha         1 5H5       0.172000
     45 H17         11.8510     3.5170    -2.6880 hc         1 5H5       0.057533
     46 H18         10.2150     3.9140    -2.1430 hc         1 5H5       0.057533
     47 H19         10.9480     2.3690    -1.6910 hc         1 5H5       0.057533
     48 H20         11.4400     3.8110    -4.9630 hc         1 5H5       0.057533
     49 H21          9.7470     4.2800    -4.7600 hc         1 5H5       0.057533
     50 H22         10.1700     2.9360    -5.8300 hc         1 5H5       0.057533
     51 H131        -0.1440    -1.8910     0.3480 hn         1 5H5       0.481133
@<TRIPOS>BOND
     1    11    24 1
     2    11    25 2
     3    24    23 2
     4    25    26 1
     5    23    26 1
     6    23     7 1
     7    26    12 1
     8    28    12 1
     9     6     7 2
    10     6    20 1
    11     7    21 1
    12    12    27 1
    13    20    19 1
    14    20     8 1
    15    21     8 2
    16    19     5 1
    17     5    18 1
    18     8     9 1
    19     9    22 ar
    20     9    17 ar
    21    18    17 1
    22    22    10 ar
    23    17    16 ar
    24    13     1 1
    25    10     4 ar
    26    16     4 ar
    27     4    15 1
    28     1    14 2
    29     1     2 1
    30    15     2 1
    31     2     3 1
    32     2    29 1
    33     3    30 1
    34     3    31 1
    35     3    32 1
    36     5    33 1
    37     5    34 1
    38     6    35 1
    39    10    36 1
    40    11    37 1
    41    12    38 1
    42    13    39 1
    43    13    40 1
    44    16    41 1
    45    19    42 1
    46    19    43 1
    47    22    44 1
    48    27    45 1
    49    27    46 1
    50    27    47 1
    51    28    48 1
    52    28    49 1
    53    28    50 1
    54    51    13 1
@<TRIPOS>SUBSTRUCTURE
     1 5H5         1 TEMP              0 ****  ****    0 ROOT
