@<TRIPOS>MOLECULE
molecule
   56    59     1     0     0
SMALL
bcc


@<TRIPOS>ATOM
      1 C1           0.0000     0.0000     0.0000 c3         1 5H7      -0.066700
      2 C2           1.5300     0.0000     0.0000 c3         1 5H7      -0.099400
      3 C3           2.0400     0.0000     1.4420 c3         1 5H7       0.095500
      4 C11         -1.3040    -2.3700     4.0100 ca         1 5H7      -0.056700
      5 C12         -2.8620    -0.9320     5.0880 c          1 5H7       0.585600
      6 C13         -3.2790     0.4200     5.5230 ca         1 5H7       0.344800
      7 C14         -4.5250     0.5970     6.1240 ca         1 5H7      -0.146300
      8 C15         -4.9090     1.8650     6.5300 ca         1 5H7      -0.137000
      9 C16         -4.0330     2.9210     6.3220 ca         1 5H7       0.072600
     10 C17         -2.7970     2.6730     5.7130 cp         1 5H7       0.437800
     11 C18         -1.8540     3.7940     5.4850 cp         1 5H7      -0.231500
     12 C19         -0.5200     3.6800     5.8800 ca         1 5H7       0.186400
     13 C20          0.3540     4.7280     5.6650 ca         1 5H7      -0.188500
     14 C21         -0.0910     5.8900     5.0590 ca         1 5H7      -0.064000
     15 C22         -1.4100     6.0100     4.6630 ca         1 5H7      -0.188500
     16 C23         -2.2950     4.9670     4.8690 ca         1 5H7       0.186400
     17 F2          -3.5820     5.0840     4.4780 f          1 5H7      -0.122900
     18 F1          -0.0860     2.5460     6.4740 f          1 5H7      -0.122900
     19 F           -4.3700     4.1720     6.7020 f          1 5H7      -0.108900
     20 N3          -2.4620     1.4490     5.3420 nb         1 5H7      -0.663000
     21 O           -3.6070    -1.8790     5.2500 o          1 5H7      -0.576100
     22 N2          -1.6580    -1.1130     4.5110 ns         1 5H7      -0.467100
     23 C10         -1.7500    -3.5280     4.6330 ca         1 5H7       0.435200
     24 N1          -1.4230    -4.7140     4.1610 nb         1 5H7      -0.652000
     25 C9          -0.6650    -4.8510     3.0890 ca         1 5H7       0.417200
     26 C8          -0.1830    -3.7450     2.4150 ca         1 5H7      -0.245300
     27 C7          -0.5020    -2.4780     2.8760 ca         1 5H7      -0.106300
     28 C5           0.0000    -1.2480     2.1650 c3         1 5H7      -0.008400
     29 C4           1.5300    -1.2480     2.1650 c3         1 5H7      -0.098400
     30 N            3.5100     0.0000     1.4420 nz         1 5H7      -0.809600
     31 C6          -0.5100    -1.2480     0.7230 c3         1 5H7      -0.077400
     32 C           -0.5110    -0.0010    -1.4420 c3         1 5H7      -0.087100
     33 H           -0.3590     0.8840     0.5140 hc         1 5H7       0.065700
     34 H6           1.8900    -0.8860    -0.5090 hc         1 5H7       0.063200
     35 H7           1.8890     0.8860    -0.5090 hc         1 5H7       0.063200
     36 H1           1.6750     0.8840     1.9520 hx         1 5H7       0.116700
     37 H18         -5.1860    -0.2490     6.2730 ha         1 5H7       0.179000
     38 H19         -5.8710     2.0290     6.9990 ha         1 5H7       0.174000
     39 H20          1.3890     4.6410     5.9720 ha         1 5H7       0.156000
     40 H21          0.5980     6.7090     4.8940 ha         1 5H7       0.151000
     41 H22         -1.7510     6.9210     4.1870 ha         1 5H7       0.156000
     42 H17         -0.9950    -0.3620     4.4910 hn         1 5H7       0.338500
     43 H16         -2.3740    -3.4560     5.5160 h4         1 5H7       0.071100
     44 H15         -0.4180    -5.8430     2.7330 h4         1 5H7       0.035100
     45 H14          0.4380    -3.8680     1.5360 ha         1 5H7       0.130000
     46 H2          -0.3580    -0.3610     2.6720 hc         1 5H7       0.069700
     47 H11          1.8900    -1.2450     3.1870 hc         1 5H7       0.066200
     48 H10          1.8900    -2.1330     1.6530 hc         1 5H7       0.066200
     49 H8           3.8440    -0.0170     2.3850 hn         1 5H7       0.453133
     50 H9           3.8430     0.8260     0.9850 hn         1 5H7       0.453133
     51 H12         -1.5930    -1.2450     0.7250 hc         1 5H7       0.072700
     52 H13         -0.1470    -2.1330     0.2130 hc         1 5H7       0.072700
     53 H5          -0.1640     0.8920    -1.9480 hc         1 5H7       0.052033
     54 H4          -1.5940    -0.0170    -1.4410 hc         1 5H7       0.052033
     55 H3          -0.1370    -0.8770    -1.9570 hc         1 5H7       0.052033
     56 HN3          3.8440    -0.8180     0.9720 hn         1 5H7       0.453133
@<TRIPOS>BOND
     1    21     5 2   
     2     7     8 ar  
     3     7     6 ar  
     4     8     9 ar  
     5     5     6 1   
     6     5    22 1   
     7     6    20 ar  
     8     9    19 1   
     9     9    10 ar  
    10    23    24 ar  
    11    23     4 ar  
    12    24    25 ar  
    13    22     4 1   
    14    20    10 ar  
    15     4    27 ar  
    16    10    11 1   
    17    25    26 ar  
    18    18    12 1   
    19    27    26 ar  
    20    27    28 1   
    21    11    12 ar  
    22    11    16 ar  
    23    12    13 ar  
    24    17    16 1   
    25    28    31 1   
    26    28    29 1   
    27    16    15 ar  
    28    31     1 1   
    29    13    14 ar  
    30    29     3 1   
    31    15    14 ar  
    32     1    32 1   
    33     1     2 1   
    34     3     2 1   
    35     3    30 1   
    36     1    33 1   
    37     2    34 1   
    38     2    35 1   
    39     3    36 1   
    40     7    37 1   
    41     8    38 1   
    42    13    39 1   
    43    14    40 1   
    44    15    41 1   
    45    22    42 1   
    46    23    43 1   
    47    25    44 1   
    48    26    45 1   
    49    28    46 1   
    50    29    47 1   
    51    29    48 1   
    52    30    49 1   
    53    30    50 1   
    54    31    51 1   
    55    31    52 1   
    56    32    53 1   
    57    32    54 1   
    58    32    55 1   
    59    56    30 1   
@<TRIPOS>SUBSTRUCTURE
     1 5H7         1 TEMP              0 ****  ****    0 ROOT
