@<TRIPOS>MOLECULE
molecule
   64    64     1     0     0
SMALL
bcc


@<TRIPOS>ATOM
      1 C1           0.0000     0.0000     0.0000 ca         1 5H8      -0.136000
      2 C2           1.3820     0.0000     0.0000 ca         1 5H8      -0.141500
      3 C3           2.0740     0.0000     1.1970 ca         1 5H8      -0.103000
      4 C9           3.0450     1.5420     5.2760 c          1 5H8       0.743100
      5 C11          4.0290     2.9790     6.9800 c3         1 5H8      -0.065200
      6 C14          8.0540     3.7260     7.8240 c3         1 5H8       0.167500
      7 C15          8.8970     3.1050     8.9080 c          1 5H8       0.653100
      8 O17          3.4150     0.5790     5.9160 o          1 5H8      -0.599000
      9 C20          8.2620     5.2410     7.8210 c3         1 5H8      -0.105400
     10 C21          9.7010     5.5580     7.4100 c3         1 5H8      -0.091700
     11 C22          9.9150     5.1560     5.9490 c3         1 5H8      -0.083100
     12 C30         12.4810     2.7610     9.5430 c          1 5H8       0.889600
     13 C4           1.3820    -0.0010     2.3940 ca         1 5H8      -0.078300
     14 P12          5.8030     3.2070     6.6290 p5         1 5H8       1.113500
     15 O19          6.3720     1.9050     5.8730 o          1 5H8      -0.809000
     16 O18          5.9870     4.3970     5.7670 o          1 5H8      -0.809000
     17 N13          6.6380     3.4270     8.0740 n7         1 5H8      -0.910300
     18 C23          9.9600     7.0580     7.5690 c3         1 5H8      -0.083100
     19 O24          8.3950     2.8070     9.9710 o          1 5H8      -0.654100
     20 N16         10.2090     2.8840     8.6970 ns         1 5H8      -0.559900
     21 C25         11.0470     2.3600     9.7780 c3         1 5H8       0.018700
     22 C26         10.9430     0.8330     9.8110 c3         1 5H8      -0.059000
     23 C29          9.4890     0.4260    10.0490 c3         1 5H8      -0.076767
     24 C28         11.8180     0.2870    10.9400 c3         1 5H8      -0.076767
     25 C5          -0.0000    -0.0000     2.3940 ca         1 5H8      -0.103000
     26 C6          -0.6910     0.0050     1.1970 ca         1 5H8      -0.141500
     27 O8           2.3780     1.3670     4.1190 os         1 5H8      -0.453900
     28 N10          3.3030     2.7880     5.7220 ns         1 5H8      -0.519900
     29 H1          -0.5420     0.0020    -0.9380 ha         1 5H8       0.114000
     30 H2           1.9240    -0.0020    -0.9380 ha         1 5H8       0.119500
     31 H3           3.1570    -0.0000     1.1970 ha         1 5H8       0.140000
     32 H6           3.6460     3.8560     7.4880 h1         1 5H8       0.052200
     33 H7           3.8950     2.1090     7.6100 h1         1 5H8       0.052200
     34 H8           8.3450     3.3190     6.8630 h1         1 5H8       0.100700
     35 H9           8.0740     5.6340     8.8130 hc         1 5H8       0.051200
     36 H10          7.5770     5.6980     7.1160 hc         1 5H8       0.051200
     37 H11         10.3870     5.0050     8.0410 hc         1 5H8       0.087700
     38 H12          9.8860     4.0760     5.8630 hc         1 5H8       0.026033
     39 H13         10.8780     5.5190     5.6110 hc         1 5H8       0.026033
     40 H14          9.1310     5.5870     5.3370 hc         1 5H8       0.026033
     41 H15         10.7750     0.6150     7.6790 hc         1 5H8       0.028811
     42 H16         11.3890    -0.8200     8.5120 hc         1 5H8       0.028811
     43 H17         12.4370     0.5870     8.2840 hc         1 5H8       0.028811
     44 H19          6.1730     3.8300     8.8630 hn         1 5H8       0.384800
     45 H20         10.9860     7.2780     7.3010 hc         1 5H8       0.026033
     46 H21          9.7850     7.3470     8.5980 hc         1 5H8       0.026033
     47 H22          9.2910     7.6100     6.9200 hc         1 5H8       0.026033
     48 H23         10.6140     3.0870     7.8040 hn         1 5H8       0.330500
     49 H24         10.7100     2.7650    10.7240 h1         1 5H8       0.063700
     50 H26          9.4490    -0.6140    10.3510 hc         1 5H8       0.028811
     51 H27          8.9220     0.5580     9.1350 hc         1 5H8       0.028811
     52 H28          9.0640     1.0450    10.8300 hc         1 5H8       0.028811
     53 H29         11.8420     1.0000    11.7550 hc         1 5H8       0.028811
     54 H30         11.4080    -0.6520    11.2930 hc         1 5H8       0.028811
     55 H31         12.8240     0.1260    10.5720 hc         1 5H8       0.028811
     56 H32         -0.5420     0.0020     3.3320 ha         1 5H8       0.140000
     57 H33         -1.7740     0.0060     1.1970 ha         1 5H8       0.119500
     58 H34          2.9930     3.5820     5.1980 hn         1 5H8       0.315500
     59 C7           2.1360    -0.0010     3.6990 c3         1 5H8       0.214700
     60 O32         12.7730     3.4170     8.5710 o          1 5H8      -0.857300
     61 C27         11.4210     0.2620     8.4740 c3         1 5H8      -0.076767
     62 H4           1.5500    -0.5120     4.4540 h1         1 5H8       0.055200
     63 H5           3.0820    -0.5120     3.5690 h1         1 5H8       0.055200
     64 O31         13.4330     2.3900    10.4130 o          1 5H8      -0.857300
@<TRIPOS>BOND
     1    18    10 1   
     2    10    11 1   
     3    10     9 1   
     4    24    22 1   
     5     9     6 1   
     6    61    22 1   
     7    22    23 1   
     8    22    21 1   
     9     6     7 1   
    10     6    17 1   
    11    19     7 2   
    12     7    20 1   
    13    20    21 1   
    14    21    12 1   
    15    17    14 1   
    16    12    60 1   
    17    12    64 1   
    18    14    16 1   
    19    14    15 1   
    20    14     5 1   
    21     5    28 1   
    22    28     4 1   
    23     8     4 2   
    24     4    27 1   
    25    27    59 1   
    26    25    26 ar  
    27    25    13 ar  
    28    59    13 1   
    29    26     1 ar  
    30    13     3 ar  
    31     1     2 ar  
    32     3     2 ar  
    33     1    29 1   
    34     2    30 1   
    35     3    31 1   
    36    59    62 1   
    37    59    63 1   
    38     5    32 1   
    39     5    33 1   
    40     6    34 1   
    41     9    35 1   
    42     9    36 1   
    43    10    37 1   
    44    11    38 1   
    45    11    39 1   
    46    11    40 1   
    47    61    41 1   
    48    61    42 1   
    49    61    43 1   
    50    17    44 1   
    51    18    45 1   
    52    18    46 1   
    53    18    47 1   
    54    20    48 1   
    55    21    49 1   
    56    23    50 1   
    57    23    51 1   
    58    23    52 1   
    59    24    53 1   
    60    24    54 1   
    61    24    55 1   
    62    25    56 1   
    63    26    57 1   
    64    28    58 1   
@<TRIPOS>SUBSTRUCTURE
     1 5H8         1 TEMP              0 ****  ****    0 ROOT
