@<TRIPOS>MOLECULE
molecule
   67    67     1     0     0
SMALL
bcc


@<TRIPOS>ATOM
      1 C1           0.0000     0.0000     0.0000 ca         1 5H9      -0.136000
      2 C2           1.3820     0.0000     0.0000 ca         1 5H9      -0.141500
      3 C3           2.0730     0.0000     1.1970 ca         1 5H9      -0.103500
      4 C9           3.0450     1.5470     5.2740 c          1 5H9       0.742100
      5 C11          4.0290     2.9850     6.9780 c3         1 5H9      -0.065200
      6 C14          8.0540     3.7290     7.8210 c3         1 5H9       0.167500
      7 C15          8.8970     3.1050     8.9030 c          1 5H9       0.667100
      8 O17          3.4150     0.5830     5.9150 o          1 5H9      -0.600000
      9 C20          8.2650     5.2450     7.8220 c3         1 5H9      -0.099400
     10 C21          9.7020     5.5600     7.3980 c3         1 5H9      -0.090700
     11 C22          9.8990     5.1650     5.9330 c3         1 5H9      -0.085100
     12 C30         10.9960     0.9130     7.2040 c3         1 5H9      -0.081433
     13 C31         11.4920     3.5260    10.6790 c          1 5H9       0.886600
     14 C4           1.3820     0.0010     2.3940 ca         1 5H9      -0.078300
     15 O8           2.3770     1.3710     4.1180 os         1 5H9      -0.453900
     16 N10          3.3030     2.7930     5.7200 ns         1 5H9      -0.517900
     17 P12          5.8030     3.2120     6.6270 p5         1 5H9       1.118500
     18 O19          5.9880     4.4000     5.7640 o          1 5H9      -0.812500
     19 O18          6.3720     1.9070     5.8720 o          1 5H9      -0.812500
     20 N13          6.6380     3.4330     8.0710 n7         1 5H9      -0.912300
     21 C23          9.9640     7.0590     7.5610 c3         1 5H9      -0.085100
     22 O24          8.3870     2.7690     9.9510 o          1 5H9      -0.631100
     23 N16         10.2180     2.9200     8.7060 ns         1 5H9      -0.568900
     24 C25         11.0530     2.3930     9.7880 c3         1 5H9       0.006700
     25 C26         12.2840     1.7050     9.1940 c3         1 5H9      -0.063400
     26 C29         11.0210    -0.4480     9.2990 c3         1 5H9      -0.081433
     27 C28         13.0810    -0.2760     7.8970 c3         1 5H9      -0.081433
     28 C5          -0.0010     0.0020     2.3940 ca         1 5H9      -0.103500
     29 C6          -0.6920     0.0070     1.1970 ca         1 5H9      -0.141500
     30 H1          -0.5410     0.0020    -0.9380 ha         1 5H9       0.114000
     31 H2           1.9240    -0.0030    -0.9380 ha         1 5H9       0.120000
     32 H3           3.1570    -0.0000     1.1980 ha         1 5H9       0.139500
     33 H4           1.5490    -0.5080     4.4550 h1         1 5H9       0.055200
     34 H5           3.0810    -0.5090     3.5710 h1         1 5H9       0.055200
     35 H6           3.8940     2.1150     7.6090 h1         1 5H9       0.052700
     36 H7           3.6460     3.8620     7.4850 h1         1 5H9       0.052700
     37 H8           8.3440     3.3240     6.8590 h1         1 5H9       0.090700
     38 H9           7.5740     5.7060     7.1260 hc         1 5H9       0.056200
     39 H10          8.0890     5.6340     8.8170 hc         1 5H9       0.056200
     40 H11         10.3920     5.0020     8.0180 hc         1 5H9       0.094700
     41 H12         10.9350     5.3140     5.6550 hc         1 5H9       0.023867
     42 H13          9.2640     5.7780     5.3050 hc         1 5H9       0.023867
     43 H14          9.6370     4.1220     5.8020 hc         1 5H9       0.023867
     44 H15         11.3730     1.8530     6.8200 hc         1 5H9       0.029033
     45 H16         11.0660     0.1540     6.4350 hc         1 5H9       0.029033
     46 H17          9.9600     1.0340     7.5000 hc         1 5H9       0.029033
     47 H18          2.9540     3.5850     5.2180 hn         1 5H9       0.313500
     48 H20          6.1740     3.8360     8.8610 hn         1 5H9       0.388800
     49 H21          9.3050     7.6150     6.9050 hc         1 5H9       0.023867
     50 H22          9.7790     7.3480     8.5890 hc         1 5H9       0.023867
     51 H23         10.9940     7.2750     7.3050 hc         1 5H9       0.023867
     52 H24         10.6350     3.1840     7.8350 hn         1 5H9       0.303500
     53 H25         10.4830     1.6770    10.3680 h1         1 5H9       0.076700
     54 H27         12.9480     1.4010     9.9940 hc         1 5H9       0.045200
     55 H28         12.8010     2.3940     8.5370 hc         1 5H9       0.045200
     56 H29         11.4570    -0.4690    10.2910 hc         1 5H9       0.029033
     57 H30         10.0070    -0.0730     9.3590 hc         1 5H9       0.029033
     58 H31         11.0120    -1.4500     8.8880 hc         1 5H9       0.029033
     59 H32         13.6670     0.3770     7.2620 hc         1 5H9       0.029033
     60 H33         13.6420    -0.5060     8.7950 hc         1 5H9       0.029033
     61 H34         12.8600    -1.1940     7.3650 hc         1 5H9       0.029033
     62 H35         -0.5420     0.0050     3.3320 ha         1 5H9       0.139500
     63 H36         -1.7750     0.0080     1.1970 ha         1 5H9       0.120000
     64 C7           2.1350     0.0020     3.7000 c3         1 5H9       0.214700
     65 O33         11.1440     4.6560    10.4360 o          1 5H9      -0.855300
     66 C27         11.8450     0.4730     8.3990 c3         1 5H9      -0.074000
     67 O32         12.2710     3.2790    11.7450 o          1 5H9      -0.855300
@<TRIPOS>BOND
     1    11    10 1   
     2    26    66 1   
     3    27    66 1   
     4    10    21 1   
     5    10     9 1   
     6    66    12 1   
     7    66    25 1   
     8     9     6 1   
     9    25    24 1   
    10     6     7 1   
    11     6    20 1   
    12    22     7 2   
    13     7    23 1   
    14    23    24 1   
    15    24    13 1   
    16    20    17 1   
    17    13    65 1   
    18    13    67 1   
    19    17    18 1   
    20    17    19 1   
    21    17     5 1   
    22     5    16 1   
    23    16     4 1   
    24     8     4 2   
    25     4    15 1   
    26    15    64 1   
    27    28    29 ar  
    28    28    14 ar  
    29    29     1 ar  
    30    64    14 1   
    31    14     3 ar  
    32     1     2 ar  
    33     3     2 ar  
    34     1    30 1   
    35     2    31 1   
    36     3    32 1   
    37    64    33 1   
    38    64    34 1   
    39     5    35 1   
    40     5    36 1   
    41     6    37 1   
    42     9    38 1   
    43     9    39 1   
    44    10    40 1   
    45    11    41 1   
    46    11    42 1   
    47    11    43 1   
    48    12    44 1   
    49    12    45 1   
    50    12    46 1   
    51    16    47 1   
    52    20    48 1   
    53    21    49 1   
    54    21    50 1   
    55    21    51 1   
    56    23    52 1   
    57    24    53 1   
    58    25    54 1   
    59    25    55 1   
    60    26    56 1   
    61    26    57 1   
    62    26    58 1   
    63    27    59 1   
    64    27    60 1   
    65    27    61 1   
    66    28    62 1   
    67    29    63 1   
@<TRIPOS>SUBSTRUCTURE
     1 5H9         1 TEMP              0 ****  ****    0 ROOT
