@<TRIPOS>MOLECULE
molecule
   79    82     1     0     0
SMALL
bcc


@<TRIPOS>ATOM
      1 C1           0.0000     0.0000     0.0000 cx         1 5HA      -0.141400
      2 C2           1.5300     0.0000     0.0000 cx         1 5HA       0.083500
      3 C3           0.7650     0.0000     1.3250 cx         1 5HA      -0.141400
      4 N1           2.2080    -1.2430    -0.3910 n7         1 5HA      -0.776200
      5 C4           3.5350    -0.8600    -0.8930 c3         1 5HA       0.137800
      6 C5           4.3000    -2.1130    -1.3210 c3         1 5HA       0.127100
      7 C6           5.7240    -1.7290    -1.7260 c3         1 5HA       0.110700
      8 N2           6.4050    -1.1060    -0.5890 ns         1 5HA      -0.573900
      9 C7           6.2540     0.2120    -0.3520 c          1 5HA       0.677700
     10 O2           5.5530     0.8840    -1.0830 o          1 5HA      -0.608100
     11 O3           3.6370    -2.7210    -2.4310 oh         1 5HA      -0.608800
     12 C8           6.4890    -2.9820    -2.1550 c3         1 5HA      -0.047100
     13 C9           6.9400     0.8410     0.7970 ca         1 5HA      -0.128600
     14 C10          7.7480     0.0720     1.6330 ca         1 5HA      -0.111000
     15 C11          8.3890     0.6660     2.7180 ca         1 5HA      -0.117600
     16 C12          8.2280     2.0320     2.9580 ca         1 5HA      -0.084000
     17 C13          7.4280     2.7960     2.1210 ca         1 5HA       0.153600
     18 C14          6.7850     2.2060     1.0430 ca         1 5HA      -0.082000
     19 C15          9.2410    -0.1480     3.6110 c          1 5HA       0.675700
     20 N3           7.2710     4.1630     2.3640 nh         1 5HA      -0.672900
     21 O4           9.8030     0.3730     4.5550 o          1 5HA      -0.601100
     22 C16          6.9210     5.0670     1.2650 c3         1 5HA       0.222100
     23 S1           7.4770     4.7610     3.8950 s6         1 5HA       1.316900
     24 C23          9.2440     5.1680     3.9440 c3         1 5HA      -0.254300
     25 O5           6.6700     5.9310     3.8870 o          1 5HA      -0.611300
     26 O6           7.1740     3.6400     4.7140 o          1 5HA      -0.611300
     27 C24          8.9220    -2.5130    -1.8010 ca         1 5HA      -0.123000
     28 C25         10.1700    -2.1520    -2.2730 ca         1 5HA      -0.122500
     29 C26         10.3470    -1.8690    -3.6150 ca         1 5HA      -0.127000
     30 C27          9.2740    -1.9470    -4.4840 ca         1 5HA      -0.122500
     31 C28          8.0270    -2.3120    -4.0120 ca         1 5HA      -0.123000
     32 C29          7.8500    -2.5890    -2.6700 ca         1 5HA      -0.082300
     33 N4           9.3940    -1.4670     3.3780 ns         1 5HA      -0.580900
     34 C17         10.2390    -2.2720     4.2640 c3         1 5HA       0.163000
     35 C18         11.6970    -2.1720     3.8090 c3         1 5HA      -0.104100
     36 C30          9.7940    -3.7110     4.2080 ca         1 5HA      -0.096300
     37 C31          9.7590    -4.4690     5.3650 ca         1 5HA      -0.123000
     38 C32          9.3510    -5.7880     5.3150 ca         1 5HA      -0.122500
     39 C33          8.9770    -6.3510     4.1080 ca         1 5HA      -0.125000
     40 C34          9.0110    -5.5940     2.9520 ca         1 5HA      -0.122500
     41 C35          9.4150    -4.2730     3.0040 ca         1 5HA      -0.123000
     42 H11         -0.4680     0.9390    -0.2700 hc         1 5HA       0.075450
     43 H12A        -0.4680    -0.9390    -0.2700 hc         1 5HA       0.075450
     44 H2           1.9840     0.9480    -0.2620 h1         1 5HA       0.083700
     45 H31A         0.7650     0.9390     1.8650 hc         1 5HA       0.075450
     46 H32A         0.7640    -0.9390     1.8650 hc         1 5HA       0.075450
     47 HN1          1.6910    -1.6890    -1.1220 hn         1 5HA       0.355800
     48 H41          4.0840    -0.3520    -0.1110 h1         1 5HA       0.061200
     49 H42          3.4220    -0.1980    -1.7440 h1         1 5HA       0.061200
     50 H5           4.3360    -2.8130    -0.4950 h1         1 5HA       0.043700
     51 H6           5.6880    -1.0280    -2.5520 h1         1 5HA       0.099700
     52 HN2          6.9440    -1.6690     0.0390 hn         1 5HA       0.313500
     53 HO3          3.3130    -3.5700    -2.1780 ho         1 5HA       0.406000
     54 H81          6.6020    -3.6440    -1.3050 hc         1 5HA       0.059700
     55 H82          5.9400    -3.4910    -2.9380 hc         1 5HA       0.059700
     56 H10          7.8700    -0.9880     1.4440 ha         1 5HA       0.120000
     57 H12          8.7280     2.4950     3.8000 ha         1 5HA       0.165000
     58 H14          6.1610     2.8050     0.3910 ha         1 5HA       0.165000
     59 H161         7.4590     4.7730     0.3720 h1         1 5HA       0.051700
     60 H162         5.8550     5.0140     1.0800 h1         1 5HA       0.051700
     61 H163         7.1920     6.0810     1.5320 h1         1 5HA       0.051700
     62 H231         9.3680     6.2440     3.9080 h1         1 5HA       0.104367
     63 H232         9.6770     4.7860     4.8610 h1         1 5HA       0.104367
     64 H233         9.7420     4.7180     3.0940 h1         1 5HA       0.104367
     65 H25         11.0100    -2.0920    -1.5910 ha         1 5HA       0.130500
     66 H26         11.3240    -1.5850    -3.9840 ha         1 5HA       0.131000
     67 H27          9.4120    -1.7270    -5.5360 ha         1 5HA       0.130500
     68 H28          7.1870    -2.3720    -4.6930 ha         1 5HA       0.125000
     69 HN4          8.8880    -1.9050     2.6350 hn         1 5HA       0.313500
     70 H17         10.1510    -1.9060     5.2790 h1         1 5HA       0.087700
     71 H181        11.7600    -1.5270     2.9410 hc         1 5HA       0.046367
     72 H182        12.2970    -1.7590     4.6100 hc         1 5HA       0.046367
     73 H183        12.0640    -3.1590     3.5540 hc         1 5HA       0.046367
     74 H31         10.0520    -4.0280     6.3100 ha         1 5HA       0.128500
     75 H32          9.3240    -6.3810     6.2210 ha         1 5HA       0.132000
     76 H33          8.6590    -7.3860     4.0690 ha         1 5HA       0.132000
     77 H34          8.7170    -6.0340     2.0070 ha         1 5HA       0.132000
     78 H35          9.4420    -3.6790     2.0980 ha         1 5HA       0.128500
     79 H24          8.7840    -2.7340    -0.7500 ha         1 5HA       0.125000
@<TRIPOS>BOND
     1     1     2 1   
     2     1     3 1   
     3     1    42 1   
     4     1    43 1   
     5     2     3 1   
     6     2     4 1   
     7     2    44 1   
     8     3    45 1   
     9     3    46 1   
    10     4     5 1   
    11     4    47 1   
    12     5     6 1   
    13     5    48 1   
    14     5    49 1   
    15     6     7 1   
    16     6    11 1   
    17     6    50 1   
    18     7     8 1   
    19     7    12 1   
    20     7    51 1   
    21     8     9 1   
    22     8    52 1   
    23     9    10 2   
    24     9    13 1   
    25    11    53 1   
    26    12    32 1   
    27    12    54 1   
    28    12    55 1   
    29    13    14 ar  
    30    13    18 ar  
    31    14    15 ar  
    32    14    56 1   
    33    15    16 ar  
    34    15    19 1   
    35    16    17 ar  
    36    16    57 1   
    37    17    18 ar  
    38    17    20 1   
    39    18    58 1   
    40    19    21 2   
    41    19    33 1   
    42    20    22 1   
    43    20    23 1   
    44    22    59 1   
    45    22    60 1   
    46    22    61 1   
    47    23    24 1   
    48    23    25 2   
    49    23    26 2   
    50    24    62 1   
    51    24    63 1   
    52    24    64 1   
    53    27    28 ar  
    54    27    32 ar  
    55    27    79 1   
    56    28    29 ar  
    57    28    65 1   
    58    29    30 ar  
    59    29    66 1   
    60    30    31 ar  
    61    30    67 1   
    62    31    32 ar  
    63    31    68 1   
    64    33    34 1   
    65    33    69 1   
    66    34    35 1   
    67    34    36 1   
    68    34    70 1   
    69    35    71 1   
    70    35    72 1   
    71    35    73 1   
    72    36    37 ar  
    73    36    41 ar  
    74    37    38 ar  
    75    37    74 1   
    76    38    39 ar  
    77    38    75 1   
    78    39    40 ar  
    79    39    76 1   
    80    40    41 ar  
    81    40    77 1   
    82    41    78 1   
@<TRIPOS>SUBSTRUCTURE
     1 5HA         1 TEMP              0 ****  ****    0 ROOT
