@<TRIPOS>MOLECULE
molecule
   57    60     1     0     0
SMALL
bcc


@<TRIPOS>ATOM
      1 C10          0.0000     0.0000     0.0000 c3         1 5HB       0.157800
      2 C13         -2.3430     1.5460    -0.8230 ca         1 5HB      -0.081300
      3 C15         -2.7950     3.0720    -2.6110 ca         1 5HB      -0.129500
      4 C17         -2.9510     0.7120    -2.9830 ca         1 5HB      -0.129500
      5 C24          3.3760     6.0430     2.3610 ca         1 5HB      -0.050000
      6 C26          4.9010     7.6550     1.4690 ca         1 5HB       0.004000
      7 C28          6.4430     9.2500     0.5770 ca         1 5HB      -0.106000
      8 N05          3.4290     2.6050     1.6910 n3         1 5HB      -0.821500
      9 C06          1.9800     2.4990     1.5040 c3         1 5HB       0.245800
     10 C07          1.4710     1.2210     2.1760 c3         1 5HB      -0.083700
     11 C08          2.0360     0.0000     1.4450 c3         1 5HB      -0.084400
     12 C09          1.5300     0.0000     0.0000 c3         1 5HB      -0.082400
     13 N11         -0.4920     1.1870     0.7100 n3         1 5HB      -0.731600
     14 C12         -1.9530     1.2930     0.6110 c3         1 5HB       0.209100
     15 C14         -2.4430     2.8410    -1.2940 ca         1 5HB      -0.117000
     16 C16         -3.0460     2.0080    -3.4570 ca         1 5HB      -0.127000
     17 C18         -2.5940     0.4800    -1.6690 ca         1 5HB      -0.117000
     18 C19         -0.0570     1.1850     2.1120 c3         1 5HB       0.168800
     19 S20          4.0370     3.4630     2.9710 sy         1 5HB       1.422200
     20 O21          2.9770     3.5940     3.9070 o          1 5HB      -0.637800
     21 O22          5.2890     2.8700     3.2930 o          1 5HB      -0.637800
     22 C23          4.3910     5.0880     2.3890 ca         1 5HB      -0.310500
     23 C25          3.6140     7.3050     1.9110 ca         1 5HB      -0.131000
     24 C27          5.1850     8.9480     0.9980 ca         1 5HB      -0.129000
     25 C29          7.4580     8.2940     0.6050 ca         1 5HB      -0.134000
     26 C30          7.2230     7.0360     1.0640 ca         1 5HB      -0.100000
     27 C31          5.9360     6.6870     1.5080 ca         1 5HB      -0.065000
     28 C32          5.6500     5.3910     1.9730 ca         1 5HB       0.003000
     29 H1          -0.3590    -0.8920     0.4990 h1         1 5HB       0.038200
     30 H2          -0.3590     0.0170    -1.0220 h1         1 5HB       0.038200
     31 H3          -2.8720     4.0870    -2.9810 ha         1 5HB       0.129000
     32 H4          -3.1480    -0.1220    -3.6460 ha         1 5HB       0.129000
     33 H6           6.6580    10.2450     0.2070 ha         1 5HB       0.131000
     34 H7           5.1990     2.5900     0.5760 h1         1 5HB       0.040700
     35 H8           3.8250     1.7800    -0.1900 h1         1 5HB       0.040700
     36 H9           4.6680     1.0060     1.1590 h1         1 5HB       0.040700
     37 H10          1.7540     2.4650     0.4450 h1         1 5HB       0.065200
     38 H11          1.4940     3.3590     1.9500 h1         1 5HB       0.065200
     39 H12          1.7890     1.2000     3.2110 hc         1 5HB       0.067700
     40 H13          3.1180     0.0460     1.4480 hc         1 5HB       0.046700
     41 H14          1.7050    -0.9030     1.9430 hc         1 5HB       0.046700
     42 H15          1.8900    -0.8860    -0.5080 hc         1 5HB       0.047200
     43 H16          1.8900     0.8860    -0.5080 hc         1 5HB       0.047200
     44 H18         -2.2990     2.1130     1.2290 h1         1 5HB       0.040200
     45 H19         -2.4060     0.3690     0.9510 h1         1 5HB       0.040200
     46 H20         -2.2470     3.6750    -0.6310 ha         1 5HB       0.130500
     47 H21         -3.3230     2.1890    -4.4880 ha         1 5HB       0.129000
     48 H22         -2.5200    -0.5350    -1.2980 ha         1 5HB       0.130500
     49 H23         -0.4590     2.0560     2.6150 h1         1 5HB       0.038700
     50 H24         -0.4160     0.2850     2.5980 h1         1 5HB       0.038700
     51 H25          2.8150     8.0360     1.8960 ha         1 5HB       0.138000
     52 H26          4.4070     9.7000     0.9700 ha         1 5HB       0.136000
     53 H27          8.4510     8.5610     0.2650 ha         1 5HB       0.132000
     54 H28          8.0210     6.3030     1.0800 ha         1 5HB       0.137000
     55 H29          6.4290     4.6390     2.0000 ha         1 5HB       0.154000
     56 H5           2.3850     5.7770     2.7070 ha         1 5HB       0.145000
     57 C04          4.3400     1.9530     0.7480 c3         1 5HB       0.232100
@<TRIPOS>BOND
     1     7    24 ar
     2     7    25 ar
     3    24     6 ar
     4    25    26 ar
     5     6    23 ar
     6     6    27 ar
     7    23     5 ar
     8    26    27 ar
     9    27    28 ar
    10     5    22 ar
    11    28    22 ar
    12    12     1 1
    13    12    11 1
    14    22    19 1
    15     1    13 1
    16     3    16 ar
    17     3    15 ar
    18    11    10 1
    19    16     4 ar
    20    15     2 ar
    21     4    17 ar
    22     8    19 1
    23     8    57 1
    24     8     9 1
    25    10     9 1
    26    10    18 1
    27    19    21 2
    28    19    20 2
    29     2    17 ar
    30     2    14 1
    31    13    14 1
    32    13    18 1
    33     1    29 1
    34     1    30 1
    35     3    31 1
    36     4    32 1
    37     5    56 1
    38     7    33 1
    39    57    34 1
    40    57    35 1
    41    57    36 1
    42     9    37 1
    43     9    38 1
    44    10    39 1
    45    11    40 1
    46    11    41 1
    47    12    42 1
    48    12    43 1
    49    14    44 1
    50    14    45 1
    51    15    46 1
    52    16    47 1
    53    17    48 1
    54    18    49 1
    55    18    50 1
    56    23    51 1
    57    24    52 1
    58    25    53 1
    59    26    54 1
    60    28    55 1
@<TRIPOS>SUBSTRUCTURE
     1 5HB         1 TEMP              0 ****  ****    0 ROOT
