@<TRIPOS>MOLECULE
5HB
   57    60     1     0     0
SMALL
bcc


@<TRIPOS>ATOM
      1 C10          0.0000     0.0000     0.0000 c3         1 5HB       0.137800
      2 C13         -2.3430     1.5460    -0.8230 ca         1 5HB      -0.091300
      3 C15         -2.7950     3.0720    -2.6110 ca         1 5HB      -0.101500
      4 C17         -2.9510     0.7120    -2.9830 ca         1 5HB      -0.101500
      5 C24          3.3760     6.0430     2.3610 ca         1 5HB      -0.019000
      6 C26          4.9010     7.6550     1.4690 ca         1 5HB       0.003000
      7 C28          6.4430     9.2500     0.5770 ca         1 5HB      -0.078000
      8 N05          3.4290     2.6050     1.6910 n3         1 5HB      -0.533500
      9 C06          1.9800     2.4990     1.5040 c3         1 5HB       0.233800
     10 C07          1.4710     1.2210     2.1760 c3         1 5HB      -0.068700
     11 C08          2.0360     0.0000     1.4450 c3         1 5HB      -0.042400
     12 C09          1.5300     0.0000     0.0000 c3         1 5HB      -0.033400
     13 N11         -0.4920     1.1870     0.7100 n3         1 5HB      -0.540600
     14 C12         -1.9530     1.2930     0.6110 c3         1 5HB       0.212100
     15 C14         -2.4430     2.8410    -1.2940 ca         1 5HB      -0.091500
     16 C16         -3.0460     2.0080    -3.4570 ca         1 5HB      -0.101000
     17 C18         -2.5940     0.4800    -1.6690 ca         1 5HB      -0.091500
     18 C19         -0.0570     1.1850     2.1120 c3         1 5HB       0.161800
     19 S20          4.0370     3.4630     2.9710 sy         1 5HB       1.049200
     20 O21          2.9770     3.5940     3.9070 o          1 5HB      -0.589800
     21 O22          5.2890     2.8700     3.2930 o          1 5HB      -0.589800
     22 C23          4.3910     5.0880     2.3890 ca         1 5HB      -0.157500
     23 C25          3.6140     7.3050     1.9110 ca         1 5HB      -0.112000
     24 C27          5.1850     8.9480     0.9980 ca         1 5HB      -0.102000
     25 C29          7.4580     8.2940     0.6050 ca         1 5HB      -0.108000
     26 C30          7.2230     7.0360     1.0640 ca         1 5HB      -0.069000
     27 C31          5.9360     6.6870     1.5080 ca         1 5HB      -0.075000
     28 C32          5.6500     5.3910     1.9730 ca         1 5HB       0.038000
     29 H1          -0.3590    -0.8920     0.4990 h1         1 5HB       0.016200
     30 H2          -0.3590     0.0170    -1.0220 h1         1 5HB       0.016200
     31 H3          -2.8720     4.0870    -2.9810 ha         1 5HB       0.102000
     32 H4          -3.1480    -0.1220    -3.6460 ha         1 5HB       0.102000
     33 H6           6.6580    10.2450     0.2070 ha         1 5HB       0.102000
     34 H7           5.1990     2.5900     0.5760 h1         1 5HB       0.003367
     35 H8           3.8250     1.7800    -0.1900 h1         1 5HB       0.003367
     36 H9           4.6680     1.0060     1.1590 h1         1 5HB       0.003367
     37 H10          1.7540     2.4650     0.4450 h1         1 5HB       0.033700
     38 H11          1.4940     3.3590     1.9500 h1         1 5HB       0.033700
     39 H12          1.7890     1.2000     3.2110 hc         1 5HB       0.047700
     40 H13          3.1180     0.0460     1.4480 hc         1 5HB       0.023200
     41 H14          1.7050    -0.9030     1.9430 hc         1 5HB       0.023200
     42 H15          1.8900    -0.8860    -0.5080 hc         1 5HB       0.021700
     43 H16          1.8900     0.8860    -0.5080 hc         1 5HB       0.021700
     44 H18         -2.2990     2.1130     1.2290 h1         1 5HB       0.012200
     45 H19         -2.4060     0.3690     0.9510 h1         1 5HB       0.012200
     46 H20         -2.2470     3.6750    -0.6310 ha         1 5HB       0.106500
     47 H21         -3.3230     2.1890    -4.4880 ha         1 5HB       0.102000
     48 H22         -2.5200    -0.5350    -1.2980 ha         1 5HB       0.106500
     49 H23         -0.4590     2.0560     2.6150 h1         1 5HB       0.012200
     50 H24         -0.4160     0.2850     2.5980 h1         1 5HB       0.012200
     51 H25          2.8150     8.0360     1.8960 ha         1 5HB       0.111000
     52 H26          4.4070     9.7000     0.9700 ha         1 5HB       0.109000
     53 H27          8.4510     8.5610     0.2650 ha         1 5HB       0.104000
     54 H28          8.0210     6.3030     1.0800 ha         1 5HB       0.108000
     55 H29          6.4290     4.6390     2.0000 ha         1 5HB       0.127000
     56 H5           2.3850     5.7770     2.7070 ha         1 5HB       0.120000
     57 C04          4.3400     1.9530     0.7480 c3         1 5HB       0.271100
@<TRIPOS>BOND
     1     1    12 1   
     2     1    13 1   
     3     1    29 1   
     4     1    30 1   
     5     2    14 1   
     6     2    15 ar  
     7     2    17 ar  
     8     3    15 ar  
     9     3    16 ar  
    10     3    31 1   
    11     4    16 ar  
    12     4    17 ar  
    13     4    32 1   
    14     5    22 ar  
    15     5    23 ar  
    16     5    56 1   
    17     6    23 ar  
    18     6    24 ar  
    19     6    27 ar  
    20     7    24 ar  
    21     7    25 ar  
    22     7    33 1   
    23     8     9 1   
    24     8    19 1   
    25     8    57 1   
    26     9    10 1   
    27     9    37 1   
    28     9    38 1   
    29    10    11 1   
    30    10    18 1   
    31    10    39 1   
    32    11    12 1   
    33    11    40 1   
    34    11    41 1   
    35    12    42 1   
    36    12    43 1   
    37    13    14 1   
    38    13    18 1   
    39    14    44 1   
    40    14    45 1   
    41    15    46 1   
    42    16    47 1   
    43    17    48 1   
    44    18    49 1   
    45    18    50 1   
    46    19    20 2   
    47    19    21 2   
    48    19    22 1   
    49    22    28 ar  
    50    23    51 1   
    51    24    52 1   
    52    25    26 ar  
    53    25    53 1   
    54    26    27 ar  
    55    26    54 1   
    56    27    28 ar  
    57    28    55 1   
    58    34    57 1   
    59    35    57 1   
    60    36    57 1   
@<TRIPOS>SUBSTRUCTURE
     1 5HB         1 TEMP              0 ****  ****    0 ROOT
