@<TRIPOS>MOLECULE
5HD
   38    37     1     0     0
SMALL
bcc


@<TRIPOS>ATOM
      1 C1          0.0090   -0.0810   -0.0240 c3        1 5HD     -0.079900
      2 C2          1.5080    0.0960    0.0730 c3        1 5HD     -0.084400
      3 C3          1.9840   -0.1620    1.4920 c3        1 5HD      0.131900
      4 O14        -6.8200    3.1530    0.6910 oh        1 5HD     -0.601800
      5 C13        -6.2630    1.9400    0.2080 c3        1 5HD      0.131900
      6 C12        -4.8210    2.2310   -0.1710 c3        1 5HD     -0.084400
      7 C11        -4.1390    0.9770   -0.6700 c3        1 5HD     -0.079900
      8 C10        -2.7040    1.2620   -1.0620 c3        1 5HD     -0.077400
      9 C6         -1.9850    0.0160   -1.5680 c3        1 5HD     -0.062700
     10 C7         -2.3630   -0.2580   -3.0170 c3        1 5HD     -0.083400
     11 C8         -2.1360   -1.7140   -3.3890 c3        1 5HD      0.131400
     12 O9         -2.5420   -1.8620   -4.7410 oh        1 5HD     -0.602800
     13 C5         -0.4760    0.1830   -1.4350 c3        1 5HD     -0.077400
     14 O4          3.3940   -0.0000    1.4940 oh        1 5HD     -0.601800
     15 H1         -0.2690   -1.1250    0.2800 hc        1 5HD      0.039950
     16 H1A        -0.4990    0.6180    0.6920 hc        1 5HD      0.039950
     17 H2          1.7980    1.1350   -0.2300 hc        1 5HD      0.055700
     18 H2A         2.0290   -0.6100   -0.6250 hc        1 5HD      0.055700
     19 H3          1.5140    0.5670    2.2060 h1        1 5HD      0.019700
     20 H3A         1.7200   -1.2050    1.8160 h1        1 5HD      0.019700
     21 HO14       -7.7390    2.9650    0.9100 ho        1 5HD      0.399000
     22 H13        -6.3110    1.1530    1.0080 h1        1 5HD      0.019700
     23 H13A       -6.8420    1.5820   -0.6860 h1        1 5HD      0.019700
     24 H12        -4.2800    2.6390    0.7230 hc        1 5HD      0.055700
     25 H12A       -4.8000    3.0260   -0.9610 hc        1 5HD      0.055700
     26 H11        -4.7020    0.5680   -1.5500 hc        1 5HD      0.039950
     27 H11A       -4.1620    0.1920    0.1310 hc        1 5HD      0.039950
     28 H10        -2.6790    2.0540   -1.8550 hc        1 5HD      0.044700
     29 H10A       -2.1590    1.6700   -0.1700 hc        1 5HD      0.044700
     30 H6         -2.3060   -0.8620   -0.9390 hc        1 5HD      0.047700
     31 H7         -1.7650    0.3980   -3.7020 hc        1 5HD      0.057200
     32 H7A        -3.4440   -0.0120   -3.1870 hc        1 5HD      0.057200
     33 H8         -2.7470   -2.3900   -2.7320 h1        1 5HD      0.020200
     34 H8A        -1.0530   -1.9920   -3.2830 h1        1 5HD      0.020200
     35 HO9        -2.3730   -2.7800   -4.9790 ho        1 5HD      0.399000
     36 H5         -0.1870    1.2210   -1.7460 hc        1 5HD      0.044700
     37 H5A         0.0410   -0.5260   -2.1340 hc        1 5HD      0.044700
     38 HO4         3.6870   -0.1500    2.4000 ho        1 5HD      0.399000
@<TRIPOS>BOND
     1    1    2 1   
     2    1   13 1   
     3    1   15 1   
     4    1   16 1   
     5    2    3 1   
     6    2   17 1   
     7    2   18 1   
     8    3   14 1   
     9    3   19 1   
    10    3   20 1   
    11    4    5 1   
    12    4   21 1   
    13    5    6 1   
    14    5   22 1   
    15    5   23 1   
    16    6    7 1   
    17    6   24 1   
    18    6   25 1   
    19    7    8 1   
    20    7   26 1   
    21    7   27 1   
    22    8    9 1   
    23    8   28 1   
    24    8   29 1   
    25    9   10 1   
    26    9   13 1   
    27    9   30 1   
    28   10   11 1   
    29   10   31 1   
    30   10   32 1   
    31   11   12 1   
    32   11   33 1   
    33   11   34 1   
    34   12   35 1   
    35   13   36 1   
    36   13   37 1   
    37   14   38 1   
@<TRIPOS>SUBSTRUCTURE
     1 5HD         1 TEMP              0 ****  ****    0 ROOT
