@<TRIPOS>MOLECULE
molecule
   38    37     1     0     0
SMALL
bcc


@<TRIPOS>ATOM
      1 C1           0.0000     0.0000     0.0000 c3         1 5HD      -0.084900
      2 C2           1.5310     0.0000     0.0000 c3         1 5HD      -0.081400
      3 C3           2.0410     0.0000     1.4430 c3         1 5HD       0.140400
      4 O14         -6.8810     3.1640     0.6400 oh         1 5HD      -0.612300
      5 C13         -6.3030     1.9980     0.0480 c3         1 5HD       0.140400
      6 C12         -4.7880     2.1820    -0.0640 c3         1 5HD      -0.081400
      7 C11         -4.1680     0.9340    -0.6970 c3         1 5HD      -0.084900
      8 C10         -2.6540     1.1170    -0.8100 c3         1 5HD      -0.077400
      9 C6          -2.0350    -0.1300    -1.4430 c3         1 5HD      -0.072700
     10 C7          -2.5340    -0.2730    -2.8830 c3         1 5HD      -0.079400
     11 C8          -2.0260    -1.5910    -3.4700 c3         1 5HD       0.138400
     12 O9          -2.5910    -1.7810    -4.7690 oh         1 5HD      -0.612800
     13 C5          -0.5100     0.0010    -1.4420 c3         1 5HD      -0.077400
     14 O4           3.4690    -0.0010     1.4410 oh         1 5HD      -0.612300
     15 H1          -0.3610    -0.8850     0.5100 hc         1 5HD       0.043200
     16 H1A         -0.3610     0.8840     0.5110 hc         1 5HD       0.043200
     17 H2           1.8920    -0.8850    -0.5110 hc         1 5HD       0.053700
     18 H2A          1.8920     0.8840    -0.5110 hc         1 5HD       0.053700
     19 H3           1.6800    -0.8840     1.9540 h1         1 5HD       0.018700
     20 H3A          1.6810     0.8850     1.9530 h1         1 5HD       0.018700
     21 HO14        -7.8140     3.0510     0.7100 ho         1 5HD       0.401000
     22 H13         -6.5170     1.1350     0.6670 h1         1 5HD       0.018700
     23 H13A        -6.7230     1.8490    -0.9390 h1         1 5HD       0.018700
     24 H12         -4.5730     3.0450    -0.6830 hc         1 5HD       0.053700
     25 H12A        -4.3680     2.3320     0.9230 hc         1 5HD       0.053700
     26 H11         -4.5880     0.7830    -1.6840 hc         1 5HD       0.043200
     27 H11A        -4.3830     0.0710    -0.0790 hc         1 5HD       0.043200
     28 H10         -2.4390     1.9810    -1.4280 hc         1 5HD       0.046700
     29 H10A        -2.2340     1.2670     0.1780 hc         1 5HD       0.046700
     30 H6          -2.3230    -1.0050    -0.8730 hc         1 5HD       0.050700
     31 H7          -2.1630     0.5540    -3.4770 hc         1 5HD       0.056700
     32 H7A         -3.6170    -0.2660    -2.8920 hc         1 5HD       0.056700
     33 H8          -2.3200    -2.4100    -2.8250 h1         1 5HD       0.020200
     34 H8A         -0.9460    -1.5600    -3.5460 h1         1 5HD       0.020200
     35 HO9         -2.3290    -2.6230    -5.1050 ho         1 5HD       0.401000
     36 H5          -0.0760    -0.8340    -1.9790 hc         1 5HD       0.046700
     37 H5A         -0.2260     0.9280    -1.9250 hc         1 5HD       0.046700
     38 HO4          3.7840    -0.0010     2.3300 ho         1 5HD       0.401000
@<TRIPOS>BOND
     1    13     1 1
     2     1     2 1
     3     1    15 1
     4     1    16 1
     5     2     3 1
     6     2    17 1
     7     2    18 1
     8     3    14 1
     9     3    19 1
    10     3    20 1
    11     5     4 1
    12     4    21 1
    13     5     6 1
    14     5    22 1
    15     5    23 1
    16     6     7 1
    17     6    24 1
    18     6    25 1
    19     7     8 1
    20     7    26 1
    21     7    27 1
    22     9     8 1
    23     8    28 1
    24     8    29 1
    25    10     9 1
    26     9    13 1
    27     9    30 1
    28    11    10 1
    29    10    31 1
    30    10    32 1
    31    12    11 1
    32    11    33 1
    33    11    34 1
    34    12    35 1
    35    13    36 1
    36    13    37 1
    37    14    38 1
@<TRIPOS>SUBSTRUCTURE
     1 5HD         1 TEMP              0 ****  ****    0 ROOT
