@<TRIPOS>MOLECULE
5HE
   52    51     1     0     0
SMALL
bcc


@<TRIPOS>ATOM
      1 C1          1.2500   -1.4050    3.9880 c3        1 5HE     -0.091100
      2 C2          2.1460   -1.8090    2.8450 c3        1 5HE     -0.052200
      3 C3          2.1230   -0.8330    1.7300 c2        1 5HE     -0.173200
      4 C4          2.8240   -0.9760    0.6000 c2        1 5HE     -0.173200
      5 C5          3.7070   -2.1350    0.3290 c3        1 5HE     -0.020000
      6 C6          4.3950   -2.0700   -0.9830 c2        1 5HE     -0.174200
      7 C7          5.2620   -2.9970   -1.4080 c2        1 5HE     -0.168200
      8 C8          5.6380   -4.1910   -0.6140 c3        1 5HE     -0.020000
      9 C9          6.5690   -5.1070   -1.3150 c2        1 5HE     -0.184200
     10 C10         7.1120   -6.1860   -0.7400 c2        1 5HE     -0.159200
     11 C11         6.8560   -6.5830    0.6660 c3        1 5HE     -0.020000
     12 C13         7.4410   -7.8960    1.0300 c2        1 5HE     -0.185200
     13 C14         7.4710   -8.3900    2.2760 ce        1 5HE     -0.127000
     14 C16         6.9230   -7.7200    3.4360 ce        1 5HE     -0.162000
     15 C17         7.2210   -7.9680    4.7170 c2        1 5HE     -0.159200
     16 C18         8.2030   -8.9370    5.2890 c3        1 5HE      0.163300
     17 C19         7.4970  -10.1610    5.8780 c3        1 5HE     -0.070400
     18 C20         6.7600   -9.8080    7.1510 c3        1 5HE     -0.068400
     19 C21         6.1160  -11.0160    7.7840 c3        1 5HE     -0.194400
     20 C22         5.4980  -10.6660    9.1500 c         1 5HE      0.908600
     21 O23         4.4150  -11.2360    9.4660 o         1 5HE     -0.851800
     22 O24         6.1050   -9.8430    9.8960 o         1 5HE     -0.851800
     23 O3          9.1560   -9.4260    4.3500 oh        1 5HE     -0.607800
     24 H1C1        1.5640   -0.4200    4.4080 hc        1 5HE      0.034700
     25 H1C2        0.1900   -1.3190    3.6470 hc        1 5HE      0.034700
     26 H1C3        1.2980   -2.1680    4.8030 hc        1 5HE      0.034700
     27 H2C1        3.2020   -1.9220    3.2170 hc        1 5HE      0.049700
     28 H2C2        1.8330   -2.8190    2.4600 hc        1 5HE      0.049700
     29 H3          1.4810    0.0510    1.8780 ha        1 5HE      0.119000
     30 H4          2.7630   -0.2110   -0.1910 ha        1 5HE      0.118000
     31 H5C1        4.4780   -2.2130    1.1490 hc        1 5HE      0.058700
     32 H5C2        3.1000   -3.0850    0.3820 hc        1 5HE      0.058700
     33 H6          4.1570   -1.2020   -1.6180 ha        1 5HE      0.119000
     34 H7          5.7420   -2.8940   -2.3950 ha        1 5HE      0.120000
     35 H8C1        4.7040   -4.7590   -0.3320 hc        1 5HE      0.058200
     36 H8C2        6.1040   -3.8560    0.3580 hc        1 5HE      0.058200
     37 H9          6.8010   -4.8610   -2.3630 ha        1 5HE      0.118000
     38 H10         7.7950   -6.8340   -1.3130 ha        1 5HE      0.121000
     39 H111        7.2630   -5.7830    1.3490 hc        1 5HE      0.057200
     40 H112        5.7420   -6.6130    0.8460 hc        1 5HE      0.057200
     41 H13         7.8620   -8.4850    0.1990 ha        1 5HE      0.117000
     42 H14         7.9180   -9.3850    2.4610 ha        1 5HE      0.149000
     43 H16         6.1680   -6.9430    3.2120 ha        1 5HE      0.112000
     44 H17         6.6800   -7.4130    5.5080 ha        1 5HE      0.137000
     45 H18         8.7690   -8.4060    6.1140 h1        1 5HE      0.042700
     46 H191        6.7900  -10.5820    5.1200 hc        1 5HE      0.046200
     47 H192        8.2730  -10.9440    6.0870 hc        1 5HE      0.046200
     48 HA          9.5480   -8.6530    3.9280 ho        1 5HE      0.391000
     49 H201        7.4640   -9.3480    7.8970 hc        1 5HE      0.045200
     50 H202        5.9700   -9.0420    6.9310 hc        1 5HE      0.045200
     51 H211        5.3220  -11.4330    7.1150 hc        1 5HE      0.021700
     52 H212        6.8800  -11.8170    7.9500 hc        1 5HE      0.021700
@<TRIPOS>BOND
     1    1    2 1   
     2    1   24 1   
     3    1   25 1   
     4    1   26 1   
     5    2    3 1   
     6    2   27 1   
     7    2   28 1   
     8    3    4 2   
     9    3   29 1   
    10    4    5 1   
    11    4   30 1   
    12    5    6 1   
    13    5   31 1   
    14    5   32 1   
    15    6    7 2   
    16    6   33 1   
    17    7    8 1   
    18    7   34 1   
    19    8    9 1   
    20    8   35 1   
    21    8   36 1   
    22    9   10 2   
    23    9   37 1   
    24   10   11 1   
    25   10   38 1   
    26   11   12 1   
    27   11   39 1   
    28   11   40 1   
    29   12   13 2   
    30   12   41 1   
    31   13   14 1   
    32   13   42 1   
    33   14   15 2   
    34   14   43 1   
    35   15   16 1   
    36   15   44 1   
    37   16   17 1   
    38   16   23 1   
    39   16   45 1   
    40   17   18 1   
    41   17   46 1   
    42   17   47 1   
    43   18   19 1   
    44   18   49 1   
    45   18   50 1   
    46   19   20 1   
    47   19   51 1   
    48   19   52 1   
    49   20   21 1   
    50   20   22 1   
    51   23   48 1   
@<TRIPOS>SUBSTRUCTURE
     1 5HE         1 TEMP              0 ****  ****    0 ROOT
