@<TRIPOS>MOLECULE
molecule
   52    51     1     0     0
SMALL
bcc


@<TRIPOS>ATOM
      1 C1           0.0000     0.0000     0.0000 c3         1 5HE      -0.107100
      2 C2           1.5300     0.0000     0.0000 c3         1 5HE       0.060800
      3 C3           2.0320     0.0000     1.4210 c2         1 5HE      -0.226200
      4 C4           2.9030    -0.8990     1.8080 c2         1 5HE      -0.208200
      5 C5           3.5220    -1.8310     0.7980 c3         1 5HE       0.101000
      6 C6           5.0240    -1.7630     0.9060 c2         1 5HE      -0.259200
      7 C7           5.7210    -2.8630     1.0490 c2         1 5HE      -0.130200
      8 C8           5.0420    -4.2040     0.9490 c3         1 5HE       0.043000
      9 C9           5.7580    -5.0540    -0.0690 c2         1 5HE      -0.210200
     10 C10          6.1700    -6.2550     0.2530 c2         1 5HE      -0.176200
     11 C11          5.7790    -6.8540     1.5790 c3         1 5HE       0.301000
     12 C13          5.1580    -8.2100     1.3540 c2         1 5HE      -0.238200
     13 C14          5.6450    -9.2760     1.9800 ce         1 5HE      -0.168000
     14 C16          6.6920    -9.1150     3.0020 ce         1 5HE      -0.163000
     15 C17          7.1170   -10.1690     3.6890 c2         1 5HE      -0.201200
     16 C18          8.1890   -10.0040     4.7350 c3         1 5HE       0.178300
     17 C19          7.6440   -10.4440     6.0960 c3         1 5HE      -0.077400
     18 C20          8.6880   -10.1600     7.1780 c3         1 5HE      -0.063400
     19 C21          8.1450   -10.6000     8.5390 c3         1 5HE      -0.183400
     20 C22          9.1730   -10.3210     9.6050 c          1 5HE       0.891600
     21 O23          8.9130   -10.6270    10.8850 o          1 5HE      -0.855800
     22 O24         10.2320    -9.8220     9.3060 o          1 5HE      -0.855800
     23 O3           9.3180   -10.8090     4.3910 oh         1 5HE      -0.588800
     24 H1C1        -0.3610    -0.1070    -1.0160 hc         1 5HE       0.042367
     25 H1C2        -0.3610     0.9330     0.4150 hc         1 5HE       0.042367
     26 H1C3        -0.3610    -0.8260     0.6010 hc         1 5HE       0.042367
     27 H2C1         1.8910     0.8850    -0.5110 hc         1 5HE       0.049200
     28 H2C2         1.8910    -0.8840    -0.5110 hc         1 5HE       0.049200
     29 H3           2.5920     0.4810     0.6280 ha         1 5HE       0.093000
     30 H4           2.3970    -1.8030     1.4950 ha         1 5HE       0.032000
     31 H5C1         3.1920    -2.8450     0.9930 hc         1 5HE       0.068200
     32 H5C2         3.2180    -1.5380    -0.1990 hc         1 5HE       0.068200
     33 H6           4.3160    -2.0280     1.6820 ha         1 5HE       0.162000
     34 H7           5.2150    -3.3010     1.9010 ha         1 5HE       0.095000
     35 H8C1         4.0120    -4.0660     0.6440 hc         1 5HE       0.036700
     36 H8C2         5.0700    -4.6970     1.9140 hc         1 5HE       0.036700
     37 H9           4.6930    -5.1620     0.0950 ha         1 5HE       0.075000
     38 H10          6.7340    -6.0340     1.1510 ha         1 5HE       0.010000
     39 H111         6.6590    -6.9590     2.2010 hc         1 5HE       0.052200
     40 H112         5.0640    -6.2070     2.0710 hc         1 5HE       0.052200
     41 H13          4.8840    -7.5980     2.2050 ha         1 5HE      -0.000000
     42 H14          6.6910    -9.1940     1.7080 ha         1 5HE       0.172000
     43 H16          7.1160    -8.1360     3.1930 ha         1 5HE       0.144000
     44 H17          6.6930   -11.1480     3.4980 ha         1 5HE       0.151000
     45 H18          8.4880    -8.9640     4.7850 h1         1 5HE       0.025700
     46 H191         7.4280   -11.5050     6.0720 hc         1 5HE       0.044200
     47 H192         6.7370    -9.8950     6.3170 hc         1 5HE       0.044200
     48 HA           9.8560   -10.3470     3.7690 ho         1 5HE       0.389000
     49 H201         9.5960   -10.7090     6.9580 hc         1 5HE       0.051700
     50 H202         8.9050    -9.0990     7.2020 hc         1 5HE       0.051700
     51 H211         7.9280   -11.6610     8.5150 hc         1 5HE       0.027200
     52 H212         7.2370   -10.0510     8.7600 hc         1 5HE       0.027200
@<TRIPOS>BOND
     1     1     2 1   
     2     2     3 1   
     3     3     4 2   
     4     4     5 1   
     5     5     6 1   
     6     6     7 2   
     7     7     8 1   
     8     8     9 1   
     9     9    10 2   
    10    10    11 1   
    11    11    12 1   
    12    12    13 2   
    13    13    14 1   
    14    14    15 2   
    15    15    16 1   
    16    16    17 1   
    17    16    23 1   
    18    17    18 1   
    19    18    19 1   
    20    19    20 1   
    21    20    21 1   
    22    20    22 1   
    23     1    24 1   
    24     1    25 1   
    25     1    26 1   
    26     2    27 1   
    27     2    28 1   
    28     3    29 1   
    29     4    30 1   
    30     5    31 1   
    31     5    32 1   
    32     6    33 1   
    33     7    34 1   
    34     8    35 1   
    35     8    36 1   
    36     9    37 1   
    37    10    38 1   
    38    11    39 1   
    39    11    40 1   
    40    12    41 1   
    41    13    42 1   
    42    14    43 1   
    43    15    44 1   
    44    16    45 1   
    45    17    46 1   
    46    17    47 1   
    47    23    48 1   
    48    18    49 1   
    49    18    50 1   
    50    19    51 1   
    51    19    52 1   
@<TRIPOS>SUBSTRUCTURE
     1 5HE         1 TEMP              0 ****  ****    0 ROOT
