@<TRIPOS>MOLECULE
5HF
   64    67     1     0     0
SMALL
bcc


@<TRIPOS>ATOM
      1 C10          0.0000     0.0000     0.0000 c3         1 5HF       0.134800
      2 C13         -2.3400     1.5480    -0.8250 ca         1 5HF      -0.089300
      3 C15         -2.7920     3.0730    -2.6140 ca         1 5HF      -0.101500
      4 C17         -2.9490     0.7130    -2.9840 ca         1 5HF      -0.101500
      5 C24          3.6830    -1.2060     6.1430 ca         1 5HF      -0.019000
      6 C26          4.8880    -0.9440     8.1910 ca         1 5HF       0.003000
      7 C28          6.1100    -0.6660    10.2290 ca         1 5HF      -0.082000
      8 C01          4.9680     2.9080     7.2720 c3         1 5HF       0.235700
      9 O02          4.8710     2.4630     5.9170 os         1 5HF      -0.426600
     10 C03          4.0030     3.2550     5.1050 c3         1 5HF       0.179400
     11 C04          3.9770     2.6910     3.6830 c3         1 5HF       0.217800
     12 N05          3.3800     1.3530     3.7000 n3         1 5HF      -0.518500
     13 C06          1.9240     1.2000     3.6370 c3         1 5HF       0.240800
     14 C07          1.4730     1.2230     2.1740 c3         1 5HF      -0.077700
     15 C08          2.0360     0.0000     1.4450 c3         1 5HF      -0.040400
     16 C09          1.5310     0.0000     0.0000 c3         1 5HF      -0.020400
     17 N11         -0.4900     1.1890     0.7080 n3         1 5HF      -0.533600
     18 C12         -1.9520     1.2960     0.6100 c3         1 5HF       0.211100
     19 C14         -2.4410     2.8430    -1.2970 ca         1 5HF      -0.090500
     20 C16         -3.0440     2.0080    -3.4590 ca         1 5HF      -0.102000
     21 C18         -2.5930     0.4830    -1.6680 ca         1 5HF      -0.090500
     22 C19         -0.0560     1.1880     2.1110 c3         1 5HF       0.162800
     23 S20          4.3500     0.0140     3.7900 sy         1 5HF       1.053200
     24 O21          3.6000    -1.0630     3.2460 o          1 5HF      -0.590800
     25 O22          5.6220     0.4060     3.2920 o          1 5HF      -0.590800
     26 C23          4.5770    -0.3510     5.5000 ca         1 5HF      -0.152500
     27 C25          3.8270    -1.5040     7.4630 ca         1 5HF      -0.123000
     28 C27          5.0690    -1.2280     9.5550 ca         1 5HF      -0.103000
     29 C29          7.0030     0.1880     9.5860 ca         1 5HF      -0.114000
     30 C30          6.8670     0.4780     8.2630 ca         1 5HF      -0.072000
     31 C31          5.8030    -0.0830     7.5350 ca         1 5HF      -0.082000
     32 C32          5.6200     0.2060     6.1720 ca         1 5HF       0.068000
     33 H1          -0.3600     0.0160    -1.0220 h1         1 5HF       0.015700
     34 H2          -0.3600    -0.8910     0.5010 h1         1 5HF       0.015700
     35 H3          -2.8680     4.0880    -2.9850 ha         1 5HF       0.101000
     36 H4          -3.1470    -0.1220    -3.6460 ha         1 5HF       0.101000
     37 H5           2.8650    -1.6430     5.5830 ha         1 5HF       0.119000
     38 H6           6.2410    -0.8800    11.2830 ha         1 5HF       0.101000
     39 H7           6.0090     2.9350     7.5700 h1         1 5HF      -0.006300
     40 H8           4.4250     2.2260     7.9150 h1         1 5HF      -0.006300
     41 H9           4.5420     3.9010     7.3570 h1         1 5HF      -0.006300
     42 H10          4.3710     4.2730     5.0690 h1         1 5HF      -0.002800
     43 H11          3.0060     3.2460     5.5280 h1         1 5HF      -0.002800
     44 H12          3.3890     3.3410     3.0470 h1         1 5HF       0.040700
     45 H13          4.9890     2.6300     3.3000 h1         1 5HF       0.040700
     46 H14          1.6410     0.2570     4.0870 h1         1 5HF       0.017700
     47 H15          1.4520     2.0130     4.1730 h1         1 5HF       0.017700
     48 H16          1.8320     2.1250     1.6940 hc         1 5HF       0.040700
     49 H17          3.1180     0.0440     1.4490 hc         1 5HF       0.038700
     50 H18          1.7030    -0.9020     1.9440 hc         1 5HF       0.038700
     51 H19          1.8910     0.8860    -0.5080 hc         1 5HF       0.018200
     52 H20          1.8910    -0.8860    -0.5080 hc         1 5HF       0.018200
     53 H22         -2.2960     2.1170     1.2270 h1         1 5HF       0.009700
     54 H23         -2.4050     0.3730     0.9510 h1         1 5HF       0.009700
     55 H24         -2.2430     3.6770    -0.6350 ha         1 5HF       0.106000
     56 H25         -3.3210     2.1890    -4.4900 ha         1 5HF       0.101000
     57 H26         -2.5190    -0.5320    -1.2970 ha         1 5HF       0.106000
     58 H27         -0.4150     0.2900     2.5980 h1         1 5HF       0.005200
     59 H28         -0.4560     2.0610     2.6120 h1         1 5HF       0.005200
     60 H29          3.1250    -2.1700     7.9500 ha         1 5HF       0.110000
     61 H30          4.3830    -1.8900    10.0690 ha         1 5HF       0.108000
     62 H31          7.8220     0.6220    10.1460 ha         1 5HF       0.103000
     63 H32          7.5690     1.1440     7.7760 ha         1 5HF       0.110000
     64 H33          6.3070     0.8690     5.6590 ha         1 5HF       0.139000
@<TRIPOS>BOND
     1     1    16 1   
     2     1    17 1   
     3     1    33 1   
     4     1    34 1   
     5     2    18 1   
     6     2    19 ar  
     7     2    21 ar  
     8     3    19 ar  
     9     3    20 ar  
    10     3    35 1   
    11     4    20 ar  
    12     4    21 ar  
    13     4    36 1   
    14     5    26 ar  
    15     5    27 ar  
    16     5    37 1   
    17     6    27 ar  
    18     6    28 ar  
    19     6    31 ar  
    20     7    28 ar  
    21     7    29 ar  
    22     7    38 1   
    23     8     9 1   
    24     8    39 1   
    25     8    40 1   
    26     8    41 1   
    27     9    10 1   
    28    10    11 1   
    29    10    42 1   
    30    10    43 1   
    31    11    12 1   
    32    11    44 1   
    33    11    45 1   
    34    12    13 1   
    35    12    23 1   
    36    13    14 1   
    37    13    46 1   
    38    13    47 1   
    39    14    15 1   
    40    14    22 1   
    41    14    48 1   
    42    15    16 1   
    43    15    49 1   
    44    15    50 1   
    45    16    51 1   
    46    16    52 1   
    47    17    18 1   
    48    17    22 1   
    49    18    53 1   
    50    18    54 1   
    51    19    55 1   
    52    20    56 1   
    53    21    57 1   
    54    22    58 1   
    55    22    59 1   
    56    23    24 2   
    57    23    25 2   
    58    23    26 1   
    59    26    32 ar  
    60    27    60 1   
    61    28    61 1   
    62    29    30 ar  
    63    29    62 1   
    64    30    31 ar  
    65    30    63 1   
    66    31    32 ar  
    67    32    64 1   
@<TRIPOS>SUBSTRUCTURE
     1 5HF         1 TEMP              0 ****  ****    0 ROOT
