@<TRIPOS>MOLECULE
molecule
   64    67     1     0     0
SMALL
bcc


@<TRIPOS>ATOM
      1 C10          0.0000     0.0000     0.0000 c3         1 5HF       0.156800
      2 C13         -2.3400     1.5480    -0.8250 ca         1 5HF      -0.079300
      3 C15         -2.7920     3.0730    -2.6140 ca         1 5HF      -0.130000
      4 C17         -2.9490     0.7130    -2.9840 ca         1 5HF      -0.130000
      5 C24          3.6830    -1.2060     6.1430 ca         1 5HF      -0.049000
      6 C26          4.8880    -0.9440     8.1910 ca         1 5HF       0.004000
      7 C28          6.1100    -0.6660    10.2290 ca         1 5HF      -0.109000
      8 C01          4.9680     2.9080     7.2720 c3         1 5HF       0.124700
      9 O02          4.8710     2.4630     5.9170 os         1 5HF      -0.442600
     10 C03          4.0030     3.2550     5.1050 c3         1 5HF       0.108400
     11 C04          3.9770     2.6910     3.6830 c3         1 5HF       0.231800
     12 N05          3.3800     1.3530     3.7000 n3         1 5HF      -0.809500
     13 C06          1.9240     1.2000     3.6370 c3         1 5HF       0.241800
     14 C07          1.4730     1.2230     2.1740 c3         1 5HF      -0.092700
     15 C08          2.0360     0.0000     1.4450 c3         1 5HF      -0.070400
     16 C09          1.5310     0.0000     0.0000 c3         1 5HF      -0.078400
     17 N11         -0.4900     1.1890     0.7080 n3         1 5HF      -0.723600
     18 C12         -1.9520     1.2960     0.6100 c3         1 5HF       0.209100
     19 C14         -2.4410     2.8430    -1.2970 ca         1 5HF      -0.116500
     20 C16         -3.0440     2.0080    -3.4590 ca         1 5HF      -0.127000
     21 C18         -2.5930     0.4830    -1.6680 ca         1 5HF      -0.116500
     22 C19         -0.0560     1.1880     2.1110 c3         1 5HF       0.170800
     23 S20          4.3500     0.0140     3.7900 sy         1 5HF       1.432200
     24 O21          3.6000    -1.0630     3.2460 o          1 5HF      -0.640800
     25 O22          5.6220     0.4060     3.2920 o          1 5HF      -0.640800
     26 C23          4.5770    -0.3510     5.5000 ca         1 5HF      -0.310500
     27 C25          3.8270    -1.5040     7.4630 ca         1 5HF      -0.145000
     28 C27          5.0690    -1.2280     9.5550 ca         1 5HF      -0.131000
     29 C29          7.0030     0.1880     9.5860 ca         1 5HF      -0.141000
     30 C30          6.8670     0.4780     8.2630 ca         1 5HF      -0.101000
     31 C31          5.8030    -0.0830     7.5350 ca         1 5HF      -0.075000
     32 C32          5.6200     0.2060     6.1720 ca         1 5HF       0.050000
     33 H1          -0.3600     0.0160    -1.0220 h1         1 5HF       0.037700
     34 H2          -0.3600    -0.8910     0.5010 h1         1 5HF       0.037700
     35 H3          -2.8680     4.0880    -2.9850 ha         1 5HF       0.129000
     36 H4          -3.1470    -0.1220    -3.6460 ha         1 5HF       0.129000
     37 H5           2.8650    -1.6430     5.5830 ha         1 5HF       0.143000
     38 H6           6.2410    -0.8800    11.2830 ha         1 5HF       0.130000
     39 H7           6.0090     2.9350     7.5700 h1         1 5HF       0.034700
     40 H8           4.4250     2.2260     7.9150 h1         1 5HF       0.034700
     41 H9           4.5420     3.9010     7.3570 h1         1 5HF       0.034700
     42 H10          4.3710     4.2730     5.0690 h1         1 5HF       0.031700
     43 H11          3.0060     3.2460     5.5280 h1         1 5HF       0.031700
     44 H12          3.3890     3.3410     3.0470 h1         1 5HF       0.076200
     45 H13          4.9890     2.6300     3.3000 h1         1 5HF       0.076200
     46 H14          1.6410     0.2570     4.0870 h1         1 5HF       0.051200
     47 H15          1.4520     2.0130     4.1730 h1         1 5HF       0.051200
     48 H16          1.8320     2.1250     1.6940 hc         1 5HF       0.066700
     49 H17          3.1180     0.0440     1.4490 hc         1 5HF       0.054200
     50 H18          1.7030    -0.9020     1.9440 hc         1 5HF       0.054200
     51 H19          1.8910     0.8860    -0.5080 hc         1 5HF       0.049700
     52 H20          1.8910    -0.8860    -0.5080 hc         1 5HF       0.049700
     53 H22         -2.2960     2.1170     1.2270 h1         1 5HF       0.038200
     54 H23         -2.4050     0.3730     0.9510 h1         1 5HF       0.038200
     55 H24         -2.2430     3.6770    -0.6350 ha         1 5HF       0.130500
     56 H25         -3.3210     2.1890    -4.4900 ha         1 5HF       0.128000
     57 H26         -2.5190    -0.5320    -1.2970 ha         1 5HF       0.130500
     58 H27         -0.4150     0.2900     2.5980 h1         1 5HF       0.030700
     59 H28         -0.4560     2.0610     2.6120 h1         1 5HF       0.030700
     60 H29          3.1250    -2.1700     7.9500 ha         1 5HF       0.135000
     61 H30          4.3830    -1.8900    10.0690 ha         1 5HF       0.135000
     62 H31          7.8220     0.6220    10.1460 ha         1 5HF       0.130000
     63 H32          7.5690     1.1440     7.7760 ha         1 5HF       0.137000
     64 H33          6.3070     0.8690     5.6590 ha         1 5HF       0.165000
@<TRIPOS>BOND
     1     7    28 ar
     2     7    29 ar
     3    28     6 ar
     4    29    30 ar
     5     6    27 ar
     6     6    31 ar
     7    27     5 ar
     8    30    31 ar
     9    31    32 ar
    10     5    26 ar
    11    32    26 ar
    12    26    23 1
    13    16    15 1
    14    16     1 1
    15    15    14 1
    16     1    17 1
    17    23    12 1
    18    23    25 2
    19    23    24 2
    20     3    20 ar
    21     3    19 ar
    22    12    11 1
    23    12    13 1
    24    20     4 ar
    25    19     2 ar
    26    14    13 1
    27    14    22 1
    28     4    21 ar
    29    11    10 1
    30    17    18 1
    31    17    22 1
    32     2    21 ar
    33     2    18 1
    34    10     9 1
    35     9     8 1
    36     1    33 1
    37     1    34 1
    38     3    35 1
    39     4    36 1
    40     5    37 1
    41     7    38 1
    42     8    39 1
    43     8    40 1
    44     8    41 1
    45    10    42 1
    46    10    43 1
    47    11    44 1
    48    11    45 1
    49    13    46 1
    50    13    47 1
    51    14    48 1
    52    15    49 1
    53    15    50 1
    54    16    51 1
    55    16    52 1
    56    18    53 1
    57    18    54 1
    58    19    55 1
    59    20    56 1
    60    21    57 1
    61    22    58 1
    62    22    59 1
    63    27    60 1
    64    28    61 1
    65    29    62 1
    66    30    63 1
    67    32    64 1
@<TRIPOS>SUBSTRUCTURE
     1 5HF         1 TEMP              0 ****  ****    0 ROOT
