@<TRIPOS>MOLECULE
5HG
   28    29     1     0     0
SMALL
bcc


@<TRIPOS>ATOM
      1 O36          0.0000     0.0000     0.0000 o          1 5HG      -0.740833
      2 P30          1.4790     0.0000     0.0000 p5         1 5HG       0.447700
      3 O32          2.0160     0.0000     1.5180 o          1 5HG      -0.740833
      4 O34          2.0170     1.3140    -0.7600 o          1 5HG      -0.740833
      5 C28          2.0860    -1.4890    -0.8590 c3         1 5HG       0.155200
      6 O26          1.6100    -1.4890    -2.2070 os         1 5HG      -0.405600
      7 C24          2.3850    -0.5220    -2.9200 c3         1 5HG       0.088400
      8 C22          1.9230    -0.4710    -4.3770 c3         1 5HG      -0.067700
      9 N17          2.7170     0.5190    -5.1070 na         1 5HG       0.286000
     10 C15          2.3750     1.8200    -5.3310 cc         1 5HG       0.282700
     11 N13          3.3110     2.4150    -6.0120 nd         1 5HG      -0.554100
     12 C2           4.3130     1.5370    -6.2640 ca         1 5HG      -0.219200
     13 C3           3.9410     0.3100    -5.6900 ca         1 5HG       0.238800
     14 N4           4.7610    -0.7310    -5.8020 nb         1 5HG      -0.619000
     15 C5           5.9040    -0.6170    -6.4440 ca         1 5HG       0.627900
     16 N6           6.2940     0.5150    -7.0040 nb         1 5HG      -0.747000
     17 C1           5.5400     1.6070    -6.9440 ca         1 5HG       0.573200
     18 N20          5.9560     2.7870    -7.5340 nv         1 5HG      -0.551500
     19 H281         3.1700    -1.4900    -0.8590 h1         1 5HG      -0.018800
     20 H282         1.7250    -2.3730    -0.3490 h1         1 5HG      -0.018800
     21 H241         2.2530     0.4520    -2.4650 h1         1 5HG       0.058700
     22 H242         3.4310    -0.8000    -2.8820 h1         1 5HG       0.058700
     23 H221         0.8770    -0.1940    -4.4140 h1         1 5HG       0.028200
     24 H222         2.0550    -1.4460    -4.8310 h1         1 5HG       0.028200
     25 H15          1.4600     2.2900    -4.9920 h5         1 5HG       0.043800
     26 H5           6.5500    -1.4840    -6.5160 h5         1 5HG      -0.018900
     27 H201         6.9230     3.0450    -7.5090 hn         1 5HG       0.264300
     28 H202         5.2900     3.3860    -7.9800 hn         1 5HG       0.264300
@<TRIPOS>BOND
     1     1     2 1   
     2     2     3 1   
     3     2     4 1   
     4     2     5 1   
     5     5     6 1   
     6     5    19 1   
     7     5    20 1   
     8     6     7 1   
     9     7     8 1   
    10     7    21 1   
    11     7    22 1   
    12     8     9 1   
    13     8    23 1   
    14     8    24 1   
    15     9    10 1   
    16     9    13 1   
    17    10    11 2   
    18    10    25 1   
    19    11    12 1   
    20    12    13 ar  
    21    12    17 ar  
    22    13    14 ar  
    23    14    15 ar  
    24    15    16 ar  
    25    15    26 1   
    26    16    17 ar  
    27    17    18 1   
    28    18    27 1   
    29    18    28 1   
@<TRIPOS>SUBSTRUCTURE
     1 5HG         1 TEMP              0 ****  ****    0 ROOT
