@<TRIPOS>MOLECULE
molecule
   54    57     1     0     0
SMALL
bcc


@<TRIPOS>ATOM
      1 C2           0.0000     0.0000     0.0000 ca         1 5HH      -0.105000
      2 C3           1.3940     0.0000     0.0000 ca         1 5HH      -0.133000
      3 C4           4.5040   -10.3230     7.1480 ca         1 5HH      -0.128500
      4 C5           4.6660    -9.3930     9.3480 ca         1 5HH      -0.128500
      5 C6          -0.7010     0.0000     1.1670 ca         1 5HH      -0.129000
      6 C7           2.0950     0.0000     1.1660 ca         1 5HH      -0.101000
      7 C10          4.2990    -8.1550     8.8520 ca         1 5HH      -0.118000
      8 C11          0.0020     0.0040     4.7830 ca         1 5HH      -0.051000
      9 C12          2.0960     0.0010     3.6160 ca         1 5HH       0.002000
     10 C14          1.4060     0.0000     2.3920 ca         1 5HH      -0.065000
     11 C16          1.3950     0.0040     4.7830 ca         1 5HH      -0.313500
     12 C18          4.5740    -3.3130     7.9270 c3         1 5HH      -0.073400
     13 C19          5.7360    -5.5140     7.7220 c3         1 5HH       0.156800
     14 C20          4.5130    -4.6470     5.8180 c3         1 5HH       0.168800
     15 C21          3.7200    -3.6930     6.7150 c3         1 5HH      -0.123700
     16 C13         -0.0110     0.0010     2.3920 ca         1 5HH       0.004000
     17 C8          -0.7000     0.0020     3.6170 ca         1 5HH      -0.131000
     18 S1           2.2630     0.0090     6.3160 sy         1 5HH       1.421200
     19 O1           3.5490     0.5530     6.0480 o          1 5HH      -0.635800
     20 O2           1.3740     0.5570     7.2790 o          1 5HH      -0.635800
     21 N2           2.5060    -1.5710     6.7480 n7         1 5HH      -0.913100
     22 C23          3.3610    -2.4320     5.9270 c3         1 5HH       0.237800
     23 C17          4.9800    -4.5850     8.6760 c3         1 5HH      -0.126400
     24 N1           4.8760    -5.8490     6.5790 n3         1 5HH      -0.710600
     25 C22          3.6780    -6.5770     7.0180 c3         1 5HH       0.199100
     26 C15          4.0400    -8.0010     7.5030 ca         1 5HH      -0.079300
     27 C9           4.1360    -9.0860     6.6520 ca         1 5HH      -0.118000
     28 C1           4.7690   -10.4760     8.4950 ca         1 5HH      -0.128000
     29 H1          -0.5330    -0.0000    -0.9430 ha         1 5HH       0.132000
     30 H2           1.9270    -0.0000    -0.9430 ha         1 5HH       0.133000
     31 H4           4.8710    -9.5130    10.4040 ha         1 5HH       0.129000
     32 H5          -1.7840     0.0000     1.1510 ha         1 5HH       0.137000
     33 H6           3.1780     0.0000     1.1500 ha         1 5HH       0.137000
     34 H7           4.2190    -7.3070     9.5210 ha         1 5HH       0.130500
     35 H8          -0.5320     0.0060     5.7260 ha         1 5HH       0.149000
     36 H9           3.1790     0.0010     3.6310 ha         1 5HH       0.152000
     37 H10          5.4630    -2.7910     7.5930 hc         1 5HH       0.049700
     38 H11          4.0000    -2.6730     8.5870 hc         1 5HH       0.049700
     39 H12          6.0090    -6.4220     8.2450 h1         1 5HH       0.061700
     40 H13          6.6280    -5.0130     7.3650 h1         1 5HH       0.061700
     41 H14          3.9050    -4.9300     4.9670 h1         1 5HH       0.058200
     42 H15          5.4140    -4.1520     5.4750 h1         1 5HH       0.058200
     43 H16          2.8160    -4.1850     7.0520 hc         1 5HH       0.057700
     44 H17         -1.7830     0.0020     3.6330 ha         1 5HH       0.139000
     45 H18          2.0390    -1.9480     7.5480 hn         1 5HH       0.455800
     46 H19          4.2670    -1.8980     5.6660 h1         1 5HH       0.048200
     47 H20          2.8320    -2.7090     5.0230 h1         1 5HH       0.048200
     48 H21          4.0920    -5.0880     9.0400 hc         1 5HH       0.047700
     49 H22          5.6210    -4.3240     9.5090 hc         1 5HH       0.047700
     50 H24          3.0130    -6.7180     6.1750 h1         1 5HH       0.042200
     51 H25          3.1710    -6.0070     7.7870 h1         1 5HH       0.042200
     52 H26          3.9310    -8.9650     5.5950 ha         1 5HH       0.130500
     53 H27          5.0570   -11.4460     8.8840 ha         1 5HH       0.129000
     54 H3           4.5820   -11.1720     6.4800 ha         1 5HH       0.129000
@<TRIPOS>BOND
     1     1     5 ar  
     2     1     2 ar  
     3     5    16 ar  
     4     2     6 ar  
     5    16    17 ar  
     6    16    10 ar  
     7    17     8 ar  
     8     6    10 ar  
     9    10     9 ar  
    10     8    11 ar  
    11     9    11 ar  
    12    11    18 1   
    13    23    13 1   
    14    23    12 1   
    15     4     7 ar  
    16     4    28 ar  
    17    13    24 1   
    18     7    26 ar  
    19    28     3 ar  
    20    12    15 1   
    21    18    20 2   
    22    18    19 2   
    23    18    21 1   
    24    26    25 1   
    25    26    27 ar  
    26     3    27 ar  
    27    24    25 1   
    28    24    14 1   
    29    15    14 1   
    30    15    22 1   
    31    21    22 1   
    32     1    29 1   
    33     2    30 1   
    34     3    54 1   
    35     4    31 1   
    36     5    32 1   
    37     6    33 1   
    38     7    34 1   
    39     8    35 1   
    40     9    36 1   
    41    12    37 1   
    42    12    38 1   
    43    13    39 1   
    44    13    40 1   
    45    14    41 1   
    46    14    42 1   
    47    15    43 1   
    48    17    44 1   
    49    21    45 1   
    50    22    46 1   
    51    22    47 1   
    52    23    48 1   
    53    23    49 1   
    54    25    50 1   
    55    25    51 1   
    56    27    52 1   
    57    28    53 1   
@<TRIPOS>SUBSTRUCTURE
     1 5HH         1 TEMP              0 ****  ****    0 ROOT
