@<TRIPOS>MOLECULE
molecule
   71    73     1     0     0
SMALL
bcc


@<TRIPOS>ATOM
      1 N1           0.0000     0.0000     0.0000 na         1 5HI      -0.209900
      2 N3           1.7870     0.0000     1.2430 nc         1 5HI      -0.671000
      3 C5           1.3680     0.0000     0.0000 cd         1 5HI       0.490000
      4 C7          -0.8660    -0.0000    -1.1810 c3         1 5HI       0.051300
      5 C8          -1.1080    -1.4420    -1.6360 c3         1 5HI      -0.173400
      6 C10         -2.4040    -2.8900    -3.2060 c3         1 5HI      -0.146400
      7 C13         -2.5590    -0.4870     1.9070 c3         1 5HI      -0.104100
      8 C15          4.3790     0.3420    -2.2170 ca         1 5HI      -0.166500
      9 C17          1.9580    -1.7460     7.6170 ca         1 5HI      -0.132000
     10 C20          2.8540    -2.3130     8.2570 ca         1 5HI      -0.141000
     11 C21          1.6960    -0.3320    -2.4470 ca         1 5HI      -0.086000
     12 C24          2.5050    -0.3310    -3.5640 ca         1 5HI      -0.166500
     13 C26          3.2240    -0.9600     5.9380 ca         1 5HI      -0.132000
     14 O2          -1.1180    -0.0020     3.9840 o          1 5HI      -0.583100
     15 N2           1.4430    -0.0050     4.3820 ns         1 5HI      -0.536900
     16 C1           0.9560     0.0180     5.7730 c3         1 5HI       0.173000
     17 C14          0.7150     1.3310     6.4330 c3         1 5HI       0.079400
     18 O5           2.0600     2.0270     6.3310 oh         1 5HI      -0.576800
     19 C32          2.2050    -0.7380     6.6300 ca         1 5HI      -0.079300
     20 C23          4.5430    -1.5250     6.7000 ca         1 5HI      -0.141000
     21 C29          4.0380    -1.8940     7.9340 ca         1 5HI      -0.142000
     22 C2           0.7190    -0.0040     2.0680 cc         1 5HI       0.204800
     23 C19         -0.4070    -0.0060     1.2960 cd         1 5HI      -0.062900
     24 C12         -1.9200     2.0320     1.6740 c3         1 5HI      -0.104100
     25 C27          2.2300     0.0000    -1.2000 ca         1 5HI      -0.159500
     26 C30          3.8450     0.0060    -3.4510 ca         1 5HI       0.121900
     27 F1           4.6400     0.0300    -4.5430 f          1 5HI      -0.141900
     28 C18          3.5810     0.3380    -1.0930 ca         1 5HI      -0.086000
     29 C9          -2.0640    -1.4460    -2.8310 c3         1 5HI       0.213100
     30 O4          -1.4400    -0.7990    -3.9420 oh         1 5HI      -0.714800
     31 C11         -3.2260    -2.9710    -4.4620 c3         1 5HI       0.147100
     32 O3          -2.7640    -2.2740    -5.4670 oh         1 5HI      -0.558800
     33 C35         -3.8310    -4.2210    -4.6620 c3         1 5HI      -0.163400
     34 C36         -4.7930    -4.3540    -5.4420 c          1 5HI       0.773600
     35 O6          -5.4840    -5.6620    -5.6150 o          1 5HI      -0.867300
     36 O7          -5.6720    -3.4920    -5.7860 o          1 5HI      -0.867300
     37 H6          -1.2990     0.4450     3.2290 hc         1 5HI       0.287700
     38 H7          -0.1540     0.1790    -1.9770 h1         1 5HI       0.106200
     39 H7A         -1.4650     0.8090    -0.7810 h1         1 5HI       0.106200
     40 H8          -0.5170    -2.2040    -2.1280 hc         1 5HI       0.090200
     41 H8A         -1.7540    -2.1110    -1.0800 hc         1 5HI       0.090200
     42 H10         -2.5020    -3.6640    -2.4540 hc         1 5HI       0.064200
     43 H10A        -1.5130    -3.1530    -3.7640 hc         1 5HI       0.064200
     44 H13         -2.3190    -1.5340     1.7620 hc         1 5HI       0.036867
     45 H13A        -3.2540    -0.4920     2.7380 hc         1 5HI       0.036867
     46 H13B        -3.0080    -0.1510     0.9800 hc         1 5HI       0.036867
     47 H15          5.4100     0.5340    -2.4900 ha         1 5HI       0.157500
     48 H21          0.6540    -0.6010    -2.3260 ha         1 5HI       0.173500
     49 H24          1.8980    -0.1500    -4.4420 ha         1 5HI       0.157500
     50 H26          3.3240    -1.6190     5.0840 ha         1 5HI       0.149000
     51 HN2          2.3370     0.0630     3.9370 hn         1 5HI       0.366500
     52 H1           0.0130    -0.4940     5.9170 h1         1 5HI       0.092700
     53 H14          0.4620     1.1540     7.4710 h1         1 5HI       0.067200
     54 H14A        -0.0660     1.7440     5.8060 h1         1 5HI       0.067200
     55 HO5          1.7950     2.6920     6.9440 ho         1 5HI       0.378000
     56 H23          5.4800    -1.3370     6.1900 ha         1 5HI       0.159000
     57 H29          4.8200    -2.4300     8.4580 ha         1 5HI       0.084000
     58 H12         -0.9060     2.0840     1.2960 hc         1 5HI       0.036867
     59 H12A        -2.0020     2.6270     2.5760 hc         1 5HI       0.036867
     60 H12B        -2.9290     1.9650     1.2850 hc         1 5HI       0.036867
     61 H18          4.0530     0.3380    -0.1180 ha         1 5HI       0.173500
     62 H9          -2.9720    -0.9170    -2.5680 h1         1 5HI       0.021700
     63 HO4         -1.7200    -0.1210    -4.5350 ho         1 5HI       0.455000
     64 H11         -4.1350    -2.5870    -4.0150 h1         1 5HI       0.002700
     65 HO3         -3.5710    -2.2530    -5.9550 ho         1 5HI       0.437000
     66 H35         -3.9670    -4.9810    -3.9020 hc         1 5HI       0.070700
     67 H35A        -3.0430    -4.7450    -5.1880 hc         1 5HI       0.070700
     68 C6          -1.5430     0.6480     2.1930 c3         1 5HI      -0.326400
     69 C3           0.3740    -0.0320     3.3330 c          1 5HI       0.563600
     70 H17          0.8940    -1.8690     7.7750 ha         1 5HI       0.149000
     71 H20          2.7710    -2.9830     9.1040 ha         1 5HI       0.159000
@<TRIPOS>BOND
     1    23     1 1   
     2     3     1 1   
     3     1     4 1   
     4    22     2 1   
     5     2     3 2   
     6     3    25 1   
     7    24    68 1   
     8    23    68 1   
     9    68     7 1   
    10    68    37 1   
    11     5     4 1   
    12     4    38 1   
    13     4    39 1   
    14     5    29 1   
    15     5    40 1   
    16     5    41 1   
    17    31     6 1   
    18     6    29 1   
    19     6    42 1   
    20     6    43 1   
    21     7    44 1   
    22     7    45 1   
    23     7    46 1   
    24    26     8 ar  
    25    28     8 ar  
    26     8    47 1   
    27     9    10 ar  
    28     9    19 ar  
    29     9    70 1   
    30    10    21 ar  
    31    10    71 1   
    32    11    12 ar  
    33    11    25 ar  
    34    11    48 1   
    35    12    26 ar  
    36    12    49 1   
    37    19    13 ar  
    38    13    20 ar  
    39    13    50 1   
    40    14    69 2   
    41    69    15 1   
    42    69    22 1   
    43    16    15 1   
    44    15    51 1   
    45    16    17 1   
    46    16    19 1   
    47    16    52 1   
    48    17    18 1   
    49    17    53 1   
    50    17    54 1   
    51    18    55 1   
    52    21    20 ar  
    53    20    56 1   
    54    21    57 1   
    55    22    23 2   
    56    24    58 1   
    57    24    59 1   
    58    24    60 1   
    59    25    28 ar  
    60    26    27 1   
    61    28    61 1   
    62    29    30 1   
    63    29    62 1   
    64    30    63 1   
    65    33    31 1   
    66    31    32 1   
    67    31    64 1   
    68    32    65 1   
    69    34    33 1   
    70    33    66 1   
    71    33    67 1   
    72    36    34 1   
    73    35    34 1   
@<TRIPOS>SUBSTRUCTURE
     1 5HI         1 TEMP              0 ****  ****    0 ROOT
