@<TRIPOS>MOLECULE
5HI
   71    74     1     0     0
SMALL
bcc


@<TRIPOS>ATOM
      1 N1           0.0000     0.0000     0.0000 na         1 5HI       0.314000
      2 N3           1.7870     0.0000     1.2430 n2         1 5HI      -0.030000
      3 C5           1.3680     0.0000     0.0000 c2         1 5HI      -0.171000
      4 C7          -0.8660    -0.0000    -1.1810 c3         1 5HI      -0.105000
      5 C8          -1.1080    -1.4420    -1.6360 c3         1 5HI      -0.233000
      6 C10         -2.4040    -2.8900    -3.2060 c3         1 5HI      -0.195000
      7 C13         -2.5590    -0.4870     1.9070 c3         1 5HI      -0.130000
      8 C15          4.3790     0.3420    -2.2170 ca         1 5HI      -0.123000
      9 C17          1.9580    -1.7460     7.6170 ca         1 5HI      -0.118500
     10 C20          2.8540    -2.3130     8.2570 ca         1 5HI      -0.110000
     11 C21          1.6960    -0.3320    -2.4470 ca         1 5HI      -0.083000
     12 C24          2.5050    -0.3310    -3.5640 ca         1 5HI      -0.123000
     13 C26          3.2240    -0.9600     5.9380 ca         1 5HI      -0.118500
     14 O2          -1.1180    -0.0020     3.9840 oh         1 5HI      -0.392000
     15 N2           1.4430    -0.0050     4.3820 n7         1 5HI       0.041000
     16 C1           0.9560     0.0180     5.7730 c3         1 5HI      -0.018000
     17 C14          0.7150     1.3310     6.4330 c3         1 5HI       0.013000
     18 O5           2.0600     2.0270     6.3310 oh         1 5HI      -0.302000
     19 C32          2.2050    -0.7380     6.6300 ca         1 5HI      -0.060000
     20 C23          4.5430    -1.5250     6.7000 ca         1 5HI      -0.110000
     21 C29          4.0380    -1.8940     7.9340 ca         1 5HI      -0.120000
     22 C2           0.7190    -0.0040     2.0680 c2         1 5HI      -0.269000
     23 C19         -0.4070    -0.0060     1.2960 c2         1 5HI      -0.127000
     24 C12         -1.9200     2.0320     1.6740 c3         1 5HI      -0.130000
     25 C27          2.2300     0.0000    -1.2000 ca         1 5HI      -0.041000
     26 C30          3.8450     0.0060    -3.4510 ca         1 5HI       0.049000
     27 F1           4.6400     0.0300    -4.5430 f          1 5HI      -0.095000
     28 C18          3.5810     0.3380    -1.0930 ca         1 5HI      -0.083000
     29 C9          -2.0640    -1.4460    -2.8310 c3         1 5HI       0.140000
     30 O4          -1.4400    -0.7990    -3.9420 oh         1 5HI      -0.401000
     31 C11         -3.2260    -2.9710    -4.4620 c3         1 5HI       0.087000
     32 O3          -2.7640    -2.2740    -5.4670 oh         1 5HI      -0.291000
     33 C35         -3.8310    -4.2210    -4.6620 c3         1 5HI      -0.166000
     34 C36         -4.7930    -4.3540    -5.4420 c2         1 5HI       0.270000
     35 O6          -5.4840    -5.6620    -5.6150 o          1 5HI      -0.634500
     36 O7          -5.6720    -3.4920    -5.7860 o          1 5HI      -0.634500
     37 H6          -1.2990     0.4450     3.2290 DU         1 5HI       0.369000
     38 H7          -0.1540     0.1790    -1.9770 h1         1 5HI       0.122500
     39 H7A         -1.4650     0.8090    -0.7810 h1         1 5HI       0.122500
     40 H8          -0.5170    -2.2040    -2.1280 hc         1 5HI       0.110500
     41 H8A         -1.7540    -2.1110    -1.0800 hc         1 5HI       0.110500
     42 H10         -2.5020    -3.6640    -2.4540 hc         1 5HI       0.077500
     43 H10A        -1.5130    -3.1530    -3.7640 hc         1 5HI       0.077500
     44 H13         -2.3190    -1.5340     1.7620 hc         1 5HI       0.048833
     45 H13A        -3.2540    -0.4920     2.7380 hc         1 5HI       0.048833
     46 H13B        -3.0080    -0.1510     0.9800 hc         1 5HI       0.048833
     47 H15          5.4100     0.5340    -2.4900 ha         1 5HI       0.129000
     48 H21          0.6540    -0.6010    -2.3260 ha         1 5HI       0.151000
     49 H24          1.8980    -0.1500    -4.4420 ha         1 5HI       0.129000
     50 H26          3.3240    -1.6190     5.0840 ha         1 5HI       0.127500
     51 HN2          2.3370     0.0630     3.9370 hn         1 5HI       0.134000
     52 H1           0.0130    -0.4940     5.9170 h1         1 5HI       0.108000
     53 H14          0.4620     1.1540     7.4710 h1         1 5HI       0.068500
     54 H14A        -0.0660     1.7440     5.8060 h1         1 5HI       0.068500
     55 HO5          1.7950     2.6920     6.9440 ho         1 5HI       0.177000
     56 H23          5.4800    -1.3370     6.1900 ha         1 5HI       0.132500
     57 H29          4.8200    -2.4300     8.4580 ha         1 5HI       0.061000
     58 H12         -0.9060     2.0840     1.2960 hc         1 5HI       0.048833
     59 H12A        -2.0020     2.6270     2.5760 hc         1 5HI       0.048833
     60 H12B        -2.9290     1.9650     1.2850 hc         1 5HI       0.048833
     61 H18          4.0530     0.3380    -0.1180 ha         1 5HI       0.151000
     62 H9          -2.9720    -0.9170    -2.5680 h1         1 5HI       0.034000
     63 HO4         -1.7200    -0.1210    -4.5350 ho         1 5HI       0.235000
     64 H11         -4.1350    -2.5870    -4.0150 h1         1 5HI       0.021000
     65 HO3         -3.5710    -2.2530    -5.9550 ho         1 5HI       0.225000
     66 H35         -3.9670    -4.9810    -3.9020 hc         1 5HI       0.089500
     67 H35A        -3.0430    -4.7450    -5.1880 hc         1 5HI       0.089500
     68 C6          -1.5430     0.6480     2.1930 c3         1 5HI      -0.442000
     69 C3           0.3740    -0.0320     3.3330 c2         1 5HI       0.269000
     70 H17          0.8940    -1.8690     7.7750 ha         1 5HI       0.127500
     71 H20          2.7710    -2.9830     9.1040 ha         1 5HI       0.132500
@<TRIPOS>BOND
     1     1     3 1   
     2     1     4 1   
     3     1    23 1   
     4     2     3 1   
     5     2    22 1   
     6     3    25 1   
     7     4     5 1   
     8     4    38 1   
     9     4    39 1   
    10     5    29 1   
    11     5    40 1   
    12     5    41 1   
    13     6    29 1   
    14     6    31 1   
    15     6    42 1   
    16     6    43 1   
    17     7    44 1   
    18     7    45 1   
    19     7    46 1   
    20     7    68 1   
    21     8    26 1   
    22     8    28 1   
    23     8    47 1   
    24     9    10 1   
    25     9    19 1   
    26     9    70 1   
    27    10    21 1   
    28    10    71 1   
    29    11    12 1   
    30    11    25 1   
    31    11    48 1   
    32    12    26 1   
    33    12    49 1   
    34    13    19 1   
    35    13    20 1   
    36    13    50 1   
    37    14    37 1   
    38    14    69 1   
    39    15    16 1   
    40    15    51 1   
    41    15    69 1   
    42    16    17 1   
    43    16    19 1   
    44    16    52 1   
    45    17    18 1   
    46    17    53 1   
    47    17    54 1   
    48    18    55 1   
    49    20    21 1   
    50    20    56 1   
    51    21    57 1   
    52    22    23 1   
    53    22    69 1   
    54    23    68 1   
    55    24    58 1   
    56    24    59 1   
    57    24    60 1   
    58    24    68 1   
    59    25    28 1   
    60    26    27 1   
    61    28    61 1   
    62    29    30 1   
    63    29    62 1   
    64    30    63 1   
    65    31    32 1   
    66    31    33 1   
    67    31    64 1   
    68    32    65 1   
    69    33    34 1   
    70    33    66 1   
    71    33    67 1   
    72    34    35 1   
    73    34    36 1   
    74    37    68 1   
@<TRIPOS>SUBSTRUCTURE
     1 5HI         1 TEMP              0 ****  ****    0 ROOT
