@<TRIPOS>MOLECULE
molecule
   32    34     1     0     0
SMALL
bcc


@<TRIPOS>ATOM
      1 C4           0.0000     0.0000     0.0000 ca         1 5HJ      -0.145300
      2 C5           1.3820     0.0000     0.0000 ca         1 5HJ      -0.064000
      3 C6           2.0740     0.0000     1.1960 ca         1 5HJ      -0.193500
      4 C7          -0.7530    -0.0000    -1.3070 c3         1 5HJ       0.280100
      5 C8           0.0990    -0.1090    -3.5460 c          1 5HJ       0.700500
      6 C9          -0.6260     1.2130    -3.7050 c3         1 5HJ      -0.054300
      7 C10          0.6940    -1.9570    -2.0840 cx         1 5HJ       0.031700
      8 C11          1.1530    -2.7820    -3.2880 cx         1 5HJ      -0.147900
      9 C12          2.1840    -2.0570    -2.4210 cx         1 5HJ      -0.147900
     10 O1           0.7150    -0.6130    -4.4610 o          1 5HJ      -0.630500
     11 N            0.0240    -0.6830    -2.3520 n          1 5HJ      -0.449800
     12 S           -0.9190     1.7080    -1.9600 ss         1 5HJ      -0.342200
     13 C3          -0.6950    -0.0050     1.1950 ca         1 5HJ      -0.064000
     14 C2          -0.0080    -0.0050     2.3950 ca         1 5HJ      -0.193500
     15 C1           1.3800    -0.0000     2.3980 ca         1 5HJ       0.154100
     16 O            2.0580    -0.0010     3.5760 os         1 5HJ      -0.325900
     17 C            1.2780    -0.0010     4.7730 c3         1 5HJ       0.127700
     18 H1           1.9240     0.0000    -0.9380 ha         1 5HJ       0.143000
     19 H2           3.1570     0.0020     1.1960 ha         1 5HJ       0.144000
     20 H3          -1.7270    -0.4610    -1.1950 h2         1 5HJ       0.083700
     21 H4           0.0030     1.9370    -4.2090 h1         1 5HJ       0.103700
     22 H5          -1.5650     1.0750    -4.2280 h1         1 5HJ       0.103700
     23 H6           0.3830    -2.5410    -1.2260 h1         1 5HJ       0.103700
     24 H7           0.9640    -2.3390    -4.2580 hc         1 5HJ       0.091950
     25 H8           1.1100    -3.8570    -3.1620 hc         1 5HJ       0.091950
     26 H9           2.6240    -1.1710    -2.8610 hc         1 5HJ       0.091950
     27 H10          2.7700    -2.6890    -1.7650 hc         1 5HJ       0.091950
     28 H11         -1.7780    -0.0080     1.1920 ha         1 5HJ       0.143000
     29 H12         -0.5520    -0.0080     3.3310 ha         1 5HJ       0.144000
     30 H13          0.6540    -0.8860     4.7980 h1         1 5HJ       0.043033
     31 H14          0.6510     0.8830     4.7950 h1         1 5HJ       0.043033
     32 H15          1.9360     0.0020     5.6330 h1         1 5HJ       0.043033
@<TRIPOS>BOND
     1     3     2 ar  
     2     3    15 ar  
     3    16    15 1   
     4    16    17 1   
     5     2     1 ar  
     6    15    14 ar  
     7     1     4 1   
     8     1    13 ar  
     9    14    13 ar  
    10    12     4 1   
    11    12     6 1   
    12     4    11 1   
    13     8     7 1   
    14     8     9 1   
    15     6     5 1   
    16    11     7 1   
    17    11     5 1   
    18     7     9 1   
    19     5    10 2   
    20     2    18 1   
    21     3    19 1   
    22     4    20 1   
    23     6    21 1   
    24     6    22 1   
    25     7    23 1   
    26     8    24 1   
    27     8    25 1   
    28     9    26 1   
    29     9    27 1   
    30    13    28 1   
    31    14    29 1   
    32    17    30 1   
    33    17    31 1   
    34    17    32 1   
@<TRIPOS>SUBSTRUCTURE
     1 5HJ         1 TEMP              0 ****  ****    0 ROOT
