@<TRIPOS>MOLECULE
molecule
   55    58     1     0     0
SMALL
bcc


@<TRIPOS>ATOM
      1 O5           0.0000     0.0000     0.0000 o          1 5HK      -0.594100
      2 C17          1.2130     0.0000     0.0000 c          1 5HK       0.658100
      3 N3           1.8870     0.0000     1.1670 n          1 5HK      -0.500800
      4 C19          1.1530     0.0060     2.4350 c3         1 5HK       0.100300
      5 C18          3.3510    -0.0050     1.1670 c3         1 5HK       0.100300
      6 C16          1.9660    -0.0060    -1.3050 c3         1 5HK      -0.111100
      7 C15          0.9860    -0.0120    -2.4510 ca         1 5HK      -0.040300
      8 C14          0.5350    -1.2120    -2.9640 ca         1 5HK      -0.134000
      9 C20          0.5390     1.1840    -2.9800 ca         1 5HK      -0.122000
     10 C21         -0.3470     1.1800    -4.0420 ca         1 5HK      -0.078000
     11 C22         -0.7950    -0.0230    -4.5710 ca         1 5HK       0.077600
     12 C13         -0.3720    -1.2270    -4.0180 ca         1 5HK       0.025600
     13 N2          -0.8730    -2.4500    -4.4620 ns         1 5HK      -0.457100
     14 C12         -1.1210    -2.8070    -5.7110 c          1 5HK       0.708100
     15 O4          -1.5440    -3.9330    -5.8920 o          1 5HK      -0.638500
     16 N4          -1.6570    -0.0060    -5.6750 na         1 5HK      -0.629000
     17 C23         -1.2450    -0.5950    -6.8640 ca         1 5HK       0.135600
     18 C11         -0.9300    -1.9670    -6.8980 ca         1 5HK      -0.159600
     19 C10         -0.4420    -2.5340    -8.0810 ca         1 5HK      -0.064000
     20 C9          -0.3100    -1.7650    -9.2130 ca         1 5HK      -0.124000
     21 C24         -1.1370     0.1740    -8.0130 ca         1 5HK      -0.094000
     22 C8          -0.6660    -0.4150    -9.1920 cp         1 5HK      -0.034000
     23 C4          -0.5470     0.4020   -10.4230 cp         1 5HK       0.046000
     24 C5          -0.0810    -0.1750   -11.6030 ca         1 5HK      -0.230000
     25 C6           0.0280     0.5940   -12.7500 ca         1 5HK       0.203100
     26 O3           0.4830     0.0340   -13.9020 os         1 5HK      -0.284900
     27 C7           0.8310    -1.3510   -13.8580 c3         1 5HK       0.121700
     28 C3          -0.9070     1.7490   -10.4070 ca         1 5HK      -0.170000
     29 C2          -0.7950     2.5070   -11.5540 ca         1 5HK      -0.033000
     30 C1          -0.3270     1.9360   -12.7230 ca         1 5HK      -0.194200
     31 N1          -0.2100     2.7550   -13.9500 no         1 5HK       0.301200
     32 O1          -0.5200     3.9320   -13.9280 o          1 5HK      -0.202500
     33 O2           0.1990     2.2520   -14.9820 o          1 5HK      -0.202500
     34 H191         1.8570     0.0090     3.2590 h1         1 5HK       0.041367
     35 H193         0.5320     0.8920     2.4890 h1         1 5HK       0.041367
     36 H192         0.5290    -0.8770     2.4960 h1         1 5HK       0.041367
     37 H182         3.7090    -0.8930     0.6590 h1         1 5HK       0.041367
     38 H181         3.7150     0.8760     0.6530 h1         1 5HK       0.041367
     39 H183         3.7120    -0.0030     2.1880 h1         1 5HK       0.041367
     40 H9           2.5880     0.8790    -1.3670 hc         1 5HK       0.069200
     41 H8           2.5890    -0.8900    -1.3580 hc         1 5HK       0.069200
     42 H7           0.8930    -2.1450    -2.5470 ha         1 5HK       0.138000
     43 H10          0.9230     2.1220    -2.5990 ha         1 5HK       0.138000
     44 H11         -0.6970     2.1170    -4.4570 ha         1 5HK       0.150000
     45 H6          -1.0660    -3.1330    -3.7570 hn         1 5HK       0.340500
     46 H12         -2.5480    -0.3780    -5.4100 hn         1 5HK       0.397800
     47 H5          -0.1640    -3.5810    -8.1040 ha         1 5HK       0.155000
     48 H4           0.0530    -2.2130   -10.1300 ha         1 5HK       0.137000
     49 H13         -1.4130     1.2210    -7.9980 ha         1 5HK       0.155000
     50 H3           0.2720    -1.2000   -11.6020 ha         1 5HK       0.154000
     51 H71         -0.0340    -1.9310   -13.5570 h1         1 5HK       0.048367
     52 H72          1.6320    -1.5000   -13.1440 h1         1 5HK       0.048367
     53 H73          1.1580    -1.6730   -14.8390 h1         1 5HK       0.048367
     54 H2          -1.2740     2.2010    -9.4930 ha         1 5HK       0.153000
     55 H1          -1.0730     3.5540   -11.5390 ha         1 5HK       0.171000
@<TRIPOS>BOND
     1     2     6 1
     2     2     1 2
     3     3     2 1
     4     4     3 1
     5     4    34 1
     6     4    35 1
     7     4    36 1
     8     5     3 1
     9     5    37 1
    10     5    38 1
    11     5    39 1
    12     6     7 1
    13     6    40 1
    14     6    41 1
    15     7     9 ar
    16     8     7 ar
    17     8    12 ar
    18     8    42 1
    19     9    10 ar
    20     9    43 1
    21    10    44 1
    22    11    10 ar
    23    11    16 1
    24    12    11 ar
    25    13    12 1
    26    13    14 1
    27    13    45 1
    28    14    18 1
    29    15    14 2
    30    16    46 1
    31    17    16 1
    32    17    21 ar
    33    18    17 ar
    34    19    18 ar
    35    19    20 ar
    36    19    47 1
    37    20    22 ar
    38    20    48 1
    39    21    49 1
    40    22    21 ar
    41    22    23 1
    42    23    24 ar
    43    23    28 ar
    44    24    25 ar
    45    24    50 1
    46    25    26 1
    47    25    30 ar
    48    27    26 1
    49    27    51 1
    50    27    52 1
    51    27    53 1
    52    28    29 ar
    53    28    54 1
    54    29    30 ar
    55    29    55 1
    56    30    31 1
    57    31    32 1
    58    33    31 1
@<TRIPOS>SUBSTRUCTURE
     1 5HK         1 TEMP              0 ****  ****    0 ROOT
