@<TRIPOS>MOLECULE
5HL
   36    38     1     0     0
SMALL
bcc


@<TRIPOS>ATOM
      1 C4           0.0000     0.0000     0.0000 ca         1 5HL      -0.135000
      2 C5           1.3660     0.0000     0.0000 ca         1 5HL      -0.045000
      3 C6           2.0590     0.0000     1.2150 ca         1 5HL      -0.126800
      4 N1           2.0340    -0.0010     3.6230 ns         1 5HL       0.036900
      5 C7           3.5230    -0.0000     1.2520 cc         1 5HL      -0.010200
      6 C8           4.1400    -0.0010     2.4600 cd         1 5HL      -0.198400
      7 C9           5.6460    -0.0010     2.5330 c3         1 5HL       0.213000
      8 C10          7.5940     1.4170     2.7530 cx         1 5HL       0.048500
      9 C11          8.3150     2.4970     1.9420 cx         1 5HL      -0.090900
     10 C12          8.2350     2.6110     3.4660 cx         1 5HL      -0.090900
     11 C13          3.3780    -0.0010     3.6480 c          1 5HL       0.602700
     12 C14          1.3460     0.0000     2.4290 ca         1 5HL      -0.060400
     13 O            3.9530    -0.0010     4.7220 o          1 5HL      -0.676500
     14 N            6.1280     1.3790     2.6780 n7         1 5HL      -0.519200
     15 C2          -0.0450     0.0000     2.4030 ca         1 5HL      -0.139300
     16 C1          -0.8250     0.0010     3.6930 c3         1 5HL       0.029900
     17 C           -0.9810     1.4380     4.1930 c3         1 5HL      -0.002100
     18 C3          -0.7080    -0.0010     1.1950 ca         1 5HL      -0.047000
     19 H1          -0.5360    -0.0000    -0.9410 ha         1 5HL       0.107000
     20 H2           1.9100     0.0000    -0.9370 ha         1 5HL       0.106000
     21 H3           1.5250    -0.0010     4.4850 hn         1 5HL       0.185500
     22 H4           4.0870    -0.2240     0.3550 ha         1 5HL       0.112000
     23 H5           6.0510    -0.4320     1.6250 h1         1 5HL       0.017700
     24 H6           5.9660    -0.5880     3.3850 h1         1 5HL       0.017700
     25 H7           8.1380     0.4860     2.8520 h1         1 5HL       0.060700
     26 H8           9.2830     2.2150     1.5450 hc         1 5HL       0.046950
     27 H9           7.6740     3.1720     1.3880 hc         1 5HL       0.046950
     28 H10          9.1530     2.3990     4.0000 hc         1 5HL       0.046950
     29 H11          7.5440     3.3560     3.8430 hc         1 5HL       0.046950
     30 H12          5.8200     1.9240     1.8980 hn         1 5HL       0.248800
     31 H14         -1.8040    -0.4310     3.5240 hc         1 5HL       0.019200
     32 H15         -0.2950    -0.5840     4.4360 hc         1 5HL       0.019200
     33 H16         -2.0280     1.7150     4.1760 hc         1 5HL       0.007700
     34 H17         -0.6050     1.5110     5.2070 hc         1 5HL       0.007700
     35 H18         -0.4200     2.1070     3.5520 hc         1 5HL       0.007700
     36 H19         -1.7910    -0.0010     1.1770 ha         1 5HL       0.107000
@<TRIPOS>BOND
     1     1     2 ar  
     2     1    18 ar  
     3     1    19 1   
     4     2     3 ar  
     5     2    20 1   
     6     3     5 1   
     7     3    12 ar  
     8     4    11 1   
     9     4    12 1   
    10     4    21 1   
    11     5     6 2   
    12     5    22 1   
    13     6     7 1   
    14     6    11 1   
    15     7    14 1   
    16     7    23 1   
    17     7    24 1   
    18     8     9 1   
    19     8    10 1   
    20     8    14 1   
    21     8    25 1   
    22     9    10 1   
    23     9    26 1   
    24     9    27 1   
    25    10    28 1   
    26    10    29 1   
    27    11    13 2   
    28    12    15 ar  
    29    14    30 1   
    30    15    16 1   
    31    15    18 ar  
    32    16    17 1   
    33    16    31 1   
    34    16    32 1   
    35    17    33 1   
    36    17    34 1   
    37    17    35 1   
    38    18    36 1   
@<TRIPOS>SUBSTRUCTURE
     1 5HL         1 TEMP              0 ****  ****    0 ROOT
