@<TRIPOS>MOLECULE
molecule
   36    38     1     0     0
SMALL
bcc


@<TRIPOS>ATOM
      1 C4           0.0000     0.0000     0.0000 ca         1 5HL      -0.162000
      2 C5           1.3660     0.0000     0.0000 ca         1 5HL      -0.075000
      3 C6           2.0590     0.0000     1.2150 ca         1 5HL      -0.130800
      4 N1           2.0340    -0.0010     3.6230 ns         1 5HL      -0.428100
      5 C7           3.5230    -0.0000     1.2520 cc         1 5HL      -0.041200
      6 C8           4.1400    -0.0010     2.4600 cd         1 5HL      -0.186400
      7 C9           5.6460    -0.0010     2.5330 c3         1 5HL       0.220000
      8 C10          7.5940     1.4170     2.7530 cx         1 5HL       0.098500
      9 C11          8.3150     2.4970     1.9420 cx         1 5HL      -0.148400
     10 C12          8.2350     2.6110     3.4660 cx         1 5HL      -0.148400
     11 C13          3.3780    -0.0010     3.6480 c          1 5HL       0.702700
     12 C14          1.3460     0.0000     2.4290 ca         1 5HL       0.094600
     13 O            3.9530    -0.0010     4.7220 o          1 5HL      -0.630500
     14 N            6.1280     1.3790     2.6780 n7         1 5HL      -0.768200
     15 C2          -0.0450     0.0000     2.4030 ca         1 5HL      -0.133300
     16 C1          -0.8250     0.0010     3.6930 c3         1 5HL      -0.038100
     17 C           -0.9810     1.4380     4.1930 c3         1 5HL      -0.096100
     18 C3          -0.7080    -0.0010     1.1950 ca         1 5HL      -0.077000
     19 H1          -0.5360    -0.0000    -0.9410 ha         1 5HL       0.134000
     20 H2           1.9100     0.0000    -0.9370 ha         1 5HL       0.136000
     21 H3           1.5250    -0.0010     4.4850 hn         1 5HL       0.342500
     22 H4           4.0870    -0.2240     0.3550 ha         1 5HL       0.141000
     23 H5           6.0510    -0.4320     1.6250 h1         1 5HL       0.047700
     24 H6           5.9660    -0.5880     3.3850 h1         1 5HL       0.047700
     25 H7           8.1380     0.4860     2.8520 h1         1 5HL       0.083700
     26 H8           9.2830     2.2150     1.5450 hc         1 5HL       0.075950
     27 H9           7.6740     3.1720     1.3880 hc         1 5HL       0.075950
     28 H10          9.1530     2.3990     4.0000 hc         1 5HL       0.075950
     29 H11          7.5440     3.3560     3.8430 hc         1 5HL       0.075950
     30 H12          5.8200     1.9240     1.8980 hn         1 5HL       0.353800
     31 H14         -1.8040    -0.4310     3.5240 hc         1 5HL       0.049200
     32 H15         -0.2950    -0.5840     4.4360 hc         1 5HL       0.049200
     33 H16         -2.0280     1.7150     4.1760 hc         1 5HL       0.041033
     34 H17         -0.6050     1.5110     5.2070 hc         1 5HL       0.041033
     35 H18         -0.4200     2.1070     3.5520 hc         1 5HL       0.041033
     36 H19         -1.7910    -0.0010     1.1770 ha         1 5HL       0.136000
@<TRIPOS>BOND
     1     1     2 ar
     2     1    18 ar
     3     2     3 ar
     4    18    15 ar
     5     3     5 1
     6     3    12 ar
     7    17    16 1
     8    15    12 ar
     9    15    16 1
    10     5     6 2
    11    12     4 1
    12     6     7 1
    13     6    11 1
    14     4    11 1
    15     7    14 1
    16    11    13 2
    17    14     8 1
    18     9     8 1
    19     9    10 1
    20     8    10 1
    21     1    19 1
    22     2    20 1
    23     4    21 1
    24     5    22 1
    25     7    23 1
    26     7    24 1
    27     8    25 1
    28     9    26 1
    29     9    27 1
    30    10    28 1
    31    10    29 1
    32    14    30 1
    33    16    31 1
    34    16    32 1
    35    17    33 1
    36    17    34 1
    37    17    35 1
    38    18    36 1
@<TRIPOS>SUBSTRUCTURE
     1 5HL         1 TEMP              0 ****  ****    0 ROOT
