@<TRIPOS>MOLECULE
molecule
   14    14     1     0     0
SMALL
bcc


@<TRIPOS>ATOM
      1 OAA          0.0000     0.0000     0.0000 o          1 5HN      -0.831800
      2 CAH          1.3470     0.0000     0.0000 c          1 5HN       0.884200
      3 OAB          1.9550     0.0000     1.0510 o          1 5HN      -0.831800
      4 CAJ          2.0850     0.0020    -1.2800 ca         1 5HN      -0.209900
      5 CAF          3.4850    -0.0040    -1.2940 ca         1 5HN      -0.106000
      6 CAI          4.1300    -0.0020    -2.5230 ca         1 5HN      -0.059200
      7 OAC          5.4880    -0.0070    -2.5880 oh         1 5HN      -0.533100
      8 CAD          3.3710     0.0060    -3.6860 ca         1 5HN       0.364200
      9 NAG          2.0530     0.0100    -3.6370 nb         1 5HN      -0.719000
     10 CAE          1.3970     0.0030    -2.4950 ca         1 5HN       0.428200
     11 H2           4.0350    -0.2520    -0.3940 ha         1 5HN       0.161000
     12 H3           5.8080     0.8790    -2.5510 ho         1 5HN       0.403000
     13 H4           3.8690     0.0100    -4.6480 h4         1 5HN       0.000100
     14 H5           0.3140     0.0070    -2.4980 h4         1 5HN       0.049100
@<TRIPOS>BOND
     1     3     2 1   
     2     1     2 1   
     3     2     4 1   
     4     4    10 ar  
     5     4     5 ar  
     6    10     9 ar  
     7     5     6 ar  
     8     9     8 ar  
     9     6     8 ar  
    10     6     7 1   
    11     5    11 1   
    12     7    12 1   
    13     8    13 1   
    14    10    14 1   
@<TRIPOS>SUBSTRUCTURE
     1 5HN         1 TEMP              0 ****  ****    0 ROOT
