@<TRIPOS>MOLECULE
5HN
   14    14     1     0     0
SMALL
bcc


@<TRIPOS>ATOM
      1 OAA         0.0880    0.0250   -0.0070 o         1 5HN     -0.825300
      2 CAH         1.3490    0.0810    0.0210 c         1 5HN      0.912200
      3 OAB         2.0410    0.1650    1.0740 o         1 5HN     -0.825300
      4 CAJ         2.0900    0.0450   -1.3060 ca        1 5HN     -0.198900
      5 CAF         3.4820    0.1050   -1.3510 ca        1 5HN     -0.154000
      6 CAI         4.1110    0.0680   -2.6040 ca        1 5HN     -0.034200
      7 OAC         5.4810    0.1210   -2.7640 oh        1 5HN     -0.518100
      8 CAD         3.3270   -0.0280   -3.7740 ca        1 5HN      0.338200
      9 NAG         1.9820   -0.0860   -3.7360 nb        1 5HN     -0.682000
     10 CAE         1.3880   -0.0500   -2.5300 ca        1 5HN      0.375200
     11 H2          4.0490    0.1790   -0.4110 ha        1 5HN      0.157000
     12 H3          5.8650    0.1840   -1.8790 ho        1 5HN      0.409000
     13 H4          3.8030   -0.0580   -4.7660 h4        1 5HN      0.006100
     14 H5          0.2830   -0.0980   -2.5070 h4        1 5HN      0.040100
@<TRIPOS>BOND
     1    1    2 1   
     2    2    3 1   
     3    2    4 1   
     4    4    5 ar  
     5    4   10 ar  
     6    5    6 ar  
     7    5   11 1   
     8    6    7 1   
     9    6    8 ar  
    10    7   12 1   
    11    8    9 ar  
    12    8   13 1   
    13    9   10 ar  
    14   10   14 1   
@<TRIPOS>SUBSTRUCTURE
     1 5HN         1 TEMP              0 ****  ****    0 ROOT
