@<TRIPOS>MOLECULE
molecule
   29    30     1     0     0
SMALL
bcc


@<TRIPOS>ATOM
      1 C4           0.0000     0.0000     0.0000 ca         1 5HO      -0.134900
      2 C5           1.3830     0.0000     0.0000 ca         1 5HO       0.464200
      3 C6           4.3430     0.2220     4.6710 c          1 5HO       0.611100
      4 N1           2.0580     0.0000     1.1330 nb         1 5HO      -0.678000
      5 C7           6.5920     0.4450     5.7640 c3         1 5HO       0.099500
      6 C8           7.8610     1.1350     5.2030 c3         1 5HO      -0.100400
      7 N2           5.6850     0.3250     4.6080 n          1 5HO      -0.464800
      8 C9           7.9640     0.4950     3.7920 c3         1 5HO      -0.100400
      9 C10          6.4870     0.3350     3.3770 c3         1 5HO       0.099500
     10 O1           3.7830     0.2230     5.7490 o          1 5HO      -0.612100
     11 C            3.5430     0.1070     3.4160 c          1 5HO       0.587100
     12 O            4.1010     0.1040     2.3380 o          1 5HO      -0.524100
     13 C1           1.4460     0.0020     2.3070 ca         1 5HO       0.555200
     14 Cl          -0.8770    -0.0090    -1.4990 cl         1 5HO      -0.099400
     15 C3          -0.6800     0.0020     1.2110 ca         1 5HO      -0.060000
     16 C2           0.0580     0.0030     2.3820 ca         1 5HO      -0.284300
     17 H1           1.9180    -0.0010    -0.9420 h4         1 5HO       0.041100
     18 H3           6.8390    -0.5370     6.1510 h1         1 5HO       0.061700
     19 H4           7.7170     2.2060     5.1310 hc         1 5HO       0.057450
     20 H5           8.7300     0.8900     5.8020 hc         1 5HO       0.057450
     21 H6           8.4520    -0.4700     3.8450 hc         1 5HO       0.057450
     22 H7           8.4820     1.1580     3.1100 hc         1 5HO       0.057450
     23 H8           6.3540    -0.6000     2.8450 h1         1 5HO       0.061700
     24 H9           6.1880     1.1670     2.7510 h1         1 5HO       0.061700
     25 H11         -1.7630     0.0020     1.2380 ha         1 5HO       0.154000
     26 H12         -0.4390     0.0040     3.3440 ha         1 5HO       0.145000
     27 N            2.2000     0.0030     3.4780 ns         1 5HO      -0.531400
     28 H2           6.1410     1.0580     6.5340 h1         1 5HO       0.061700
     29 H10          1.7450    -0.0790     4.3660 hn         1 5HO       0.353500
@<TRIPOS>BOND
     1    14     1 1
     2     1    15 ar
     3     1     2 ar
     4    15    16 ar
     5     2     4 ar
     6    16    13 ar
     7     4    13 ar
     8    13    27 1
     9    27    11 1
    10    10     3 2
    11    11     3 1
    12    11    12 2
    13     3     7 1
    14     7     5 1
    15     7     9 1
    16     5     6 1
    17     9     8 1
    18     8     6 1
    19     2    17 1
    20     5    28 1
    21     5    18 1
    22     6    19 1
    23     6    20 1
    24     8    21 1
    25     8    22 1
    26     9    23 1
    27     9    24 1
    28    27    29 1
    29    15    25 1
    30    16    26 1
@<TRIPOS>SUBSTRUCTURE
     1 5HO         1 TEMP              0 ****  ****    0 ROOT
