@<TRIPOS>MOLECULE
molecule
   29    29     1     0     0
SMALL
bcc


@<TRIPOS>ATOM
      1 N1           0.0000     0.0000     0.0000 n7         1 5HR      -0.738200
      2 C20         -2.0330     0.0000    -1.3310 ca         1 5HR      -0.068300
      3 C21         -2.7250    -1.1970    -1.3170 ca         1 5HR      -0.104500
      4 C22         -4.1060    -1.1960    -1.2860 ca         1 5HR      -0.135500
      5 C24         -4.1050     1.1980    -1.2760 ca         1 5HR      -0.135500
      6 O10         -0.1030     1.5530     2.1970 o          1 5HR      -0.830500
      7 P4           1.3720     1.4900     2.3020 p5         1 5HR       0.883700
      8 O8           2.0140     2.8000     1.6220 o          1 5HR      -0.830500
      9 O9           1.7970     1.4260     3.8520 o          1 5HR      -0.830500
     10 C3           1.9790     0.0000     1.4430 c3         1 5HR      -0.002700
     11 N6           1.4890    -1.1990     2.1360 nz         1 5HR      -0.766600
     12 C2           1.4690     0.0000     0.0000 c3         1 5HR       0.169800
     13 C1          -0.5270    -0.0000    -1.3710 c3         1 5HR       0.207100
     14 C25         -2.7230     1.1980    -1.3130 ca         1 5HR      -0.104500
     15 C23         -4.7970     0.0010    -1.2680 ca         1 5HR      -0.136000
     16 H11         -0.3340    -0.8090     0.4860 hn         1 5HR       0.319800
     17 H211        -2.1840    -2.1350    -1.3320 ha         1 5HR       0.134000
     18 H221        -4.6480    -2.1350    -1.2780 ha         1 5HR       0.120000
     19 H241        -4.6470     2.1360    -1.2610 ha         1 5HR       0.120000
     20 H31          3.0620    -0.0000     1.4430 hx         1 5HR       0.088700
     21 H62          0.5330    -1.0640     2.4010 hn         1 5HR       0.422467
     22 H61          1.5570    -1.9890     1.5260 hn         1 5HR       0.422467
     23 H22          1.8310    -0.8840    -0.5110 h1         1 5HR       0.033700
     24 H21          1.8300     0.8850    -0.5110 h1         1 5HR       0.033700
     25 H12         -0.1790     0.8840    -1.8920 h1         1 5HR       0.027700
     26 H13         -0.1800    -0.8850    -1.8910 h1         1 5HR       0.027700
     27 H251        -2.1820     2.1360    -1.3210 ha         1 5HR       0.134000
     28 H231        -5.8800     0.0010    -1.2420 ha         1 5HR       0.115000
     29 H63          2.0450    -1.3630     2.9520 hn         1 5HR       0.422467
@<TRIPOS>BOND
     1     4    15 ar
     2     4     3 ar
     3    15     5 ar
     4     3     2 ar
     5     5    14 ar
     6     6     7 1
     7    12     1 1
     8    12    10 1
     9     2    14 ar
    10     2    13 1
    11     1    13 1
    12    11    10 1
    13     7    10 1
    14     7     8 1
    15     7     9 1
    16     1    16 1
    17     3    17 1
    18     4    18 1
    19     5    19 1
    20    10    20 1
    21    11    21 1
    22    11    22 1
    23    12    23 1
    24    12    24 1
    25    13    25 1
    26    13    26 1
    27    14    27 1
    28    15    28 1
    29    29    11 1
@<TRIPOS>SUBSTRUCTURE
     1 5HR         1 TEMP              0 ****  ****    0 ROOT
