@<TRIPOS>MOLECULE
5HV
   85    89     1     0     0
SMALL
bcc


@<TRIPOS>ATOM
      1 C01          0.0000     0.0000     0.0000 c3         1 5HV      -0.001600
      2 C05          1.5300     0.0000     0.0000 c3         1 5HV       0.144300
      3 N08          2.0210     0.0000     1.3840 n3         1 5HV      -0.539600
      4 C09          1.6710    -1.2540     2.0670 c3         1 5HV       0.144300
      5 C12          1.8280    -1.0730     3.5780 c3         1 5HV      -0.001600
      6 C16          3.4700     0.2380     1.4300 c3         1 5HV       0.119800
      7 C19          3.7510     1.7190     1.1700 c3         1 5HV       0.026000
      8 N22          5.1850     1.9780     1.3270 n          1 5HV      -0.134800
      9 C23          6.0810     1.8580     0.1750 c3         1 5HV       0.111300
     10 C26          6.1750     3.1870    -0.5300 ca         1 5HV      -0.125300
     11 C27          7.1490     4.0970    -0.1590 ca         1 5HV      -0.080500
     12 C29          7.2390     5.3150    -0.8020 ca         1 5HV      -0.094500
     13 C31          6.3470     5.6280    -1.8250 cp         1 5HV      -0.037000
     14 C32          5.3680     4.7090    -2.1940 ca         1 5HV      -0.094500
     15 C34          5.2900     3.4900    -1.5490 ca         1 5HV      -0.080500
     16 C36          6.4390     6.9360    -2.5180 cp         1 5HV       0.006000
     17 C37          5.5470     7.2490    -3.5420 ca         1 5HV      -0.109500
     18 C39          5.6370     8.4680    -4.1840 ca         1 5HV      -0.037000
     19 C41          6.6110     9.3770    -3.8140 ca         1 5HV      -0.214300
     20 C42          7.5000     9.0710    -2.7980 ca         1 5HV      -0.037000
     21 C44          7.4140     7.8590    -2.1450 ca         1 5HV      -0.109500
     22 C46          6.7040    10.7060    -4.5180 c3         1 5HV       0.640200
     23 F47          5.9060    11.6430    -3.8540 f          1 5HV      -0.208300
     24 F48          8.0340    11.1410    -4.5170 f          1 5HV      -0.208300
     25 F49          6.2600    10.5670    -5.8380 f          1 5HV      -0.208300
     26 C50          5.6790     2.3270     2.5320 c          1 5HV       0.574100
     27 O51          6.8660     2.5420     2.6610 o          1 5HV      -0.633100
     28 C52          4.7570     2.4510     3.7170 c3         1 5HV       0.016800
     29 N55          5.5300     2.8380     4.8990 na         1 5HV      -0.057400
     30 C56          6.0730     1.8730     5.7020 cc         1 5HV      -0.083200
     31 C57          6.0190     0.3650     5.5990 c3         1 5HV       0.047800
     32 C60          6.4320    -0.1460     6.9970 c3         1 5HV      -0.029400
     33 C63          7.2910     1.0240     7.5240 c3         1 5HV       0.065800
     34 C66          6.7870     2.2430     6.7830 cd         1 5HV      -0.247400
     35 C67          6.9540     3.6270     7.0570 c          1 5HV       0.724700
     36 O68          7.5980     3.9870     8.0300 o          1 5HV      -0.606100
     37 N69          6.4040     4.5350     6.2400 nc         1 5HV      -0.633100
     38 C70          5.7090     4.1560     5.1860 cd         1 5HV       0.508100
     39 S71          5.0040     5.3760     4.1290 ss         1 5HV      -0.317300
     40 C72          5.5500     6.8790     4.9760 c3         1 5HV       0.172000
     41 C75          5.0490     8.0880     4.2280 ca         1 5HV      -0.107300
     42 C76          5.8170     8.6460     3.2240 ca         1 5HV      -0.056000
     43 C78          5.3600     9.7550     2.5370 ca         1 5HV      -0.134000
     44 C80          4.1300    10.3060     2.8550 ca         1 5HV       0.113900
     45 F81          3.6800    11.3880     2.1850 f          1 5HV      -0.125900
     46 C82          3.3600     9.7450     3.8610 ca         1 5HV      -0.134000
     47 C84          3.8190     8.6330     4.5430 ca         1 5HV      -0.056000
     48 H1          -0.3610    -1.0210    -0.0230 hc         1 5HV       0.008200
     49 H2          -0.3610     0.5310    -0.8730 hc         1 5HV       0.008200
     50 H3          -0.3610     0.4910     0.8960 hc         1 5HV       0.008200
     51 H4           1.8910    -0.8840    -0.5110 h1         1 5HV       0.012200
     52 H5           1.8910     0.8840    -0.5110 h1         1 5HV       0.012200
     53 H7           0.6450    -1.5150     1.8390 h1         1 5HV       0.012200
     54 H8           2.3290    -2.0450     1.7280 h1         1 5HV       0.012200
     55 H9           1.6760    -0.0310     3.8350 hc         1 5HV       0.008200
     56 H10          1.0960    -1.6830     4.0930 hc         1 5HV       0.008200
     57 H11          2.8250    -1.3760     3.8770 hc         1 5HV       0.008200
     58 H12          3.9590    -0.3620     0.6720 h1         1 5HV       0.017700
     59 H13          3.8500    -0.0360     2.4070 h1         1 5HV       0.017700
     60 H14          3.1950     2.3220     1.8780 h1         1 5HV       0.039700
     61 H15          3.4470     1.9730     0.1620 h1         1 5HV       0.039700
     62 H16          7.0660     1.5590     0.5120 h1         1 5HV       0.037700
     63 H17          5.6920     1.1130    -0.5090 h1         1 5HV       0.037700
     64 H18          7.8420     3.8520     0.6370 ha         1 5HV       0.116500
     65 H19          8.0020     6.0270    -0.5100 ha         1 5HV       0.114000
     66 H20          4.6730     4.9460    -2.9910 ha         1 5HV       0.114000
     67 H21          4.5290     2.7750    -1.8360 ha         1 5HV       0.116500
     68 H22          4.7840     6.5380    -3.8330 ha         1 5HV       0.119000
     69 H23          4.9430     8.7120    -4.9800 ha         1 5HV       0.118000
     70 H24          8.2590     9.7880    -2.5100 ha         1 5HV       0.118000
     71 H25          8.1110     7.6210    -1.3500 ha         1 5HV       0.119000
     72 H26          4.2720     1.5000     3.8980 h1         1 5HV       0.071700
     73 H27          4.0070     3.2060     3.5130 h1         1 5HV       0.071700
     74 H28          6.7190     0.0150     4.8500 hc         1 5HV       0.022700
     75 H29          5.0120     0.0410     5.3640 hc         1 5HV       0.022700
     76 H30          7.0360    -1.0400     6.9040 hc         1 5HV       0.024700
     77 H31          5.5560    -0.2760     7.6210 hc         1 5HV       0.024700
     78 H32          8.3320     0.8530     7.2750 hc         1 5HV       0.032700
     79 H33          7.1230     1.1500     8.5860 hc         1 5HV       0.032700
     80 H34          5.1540     6.8890     5.9850 h1         1 5HV       0.064200
     81 H35          6.6330     6.9010     5.0130 h1         1 5HV       0.064200
     82 H36          6.7790     8.2140     2.9760 ha         1 5HV       0.114500
     83 H37          5.9620    10.1920     1.7500 ha         1 5HV       0.121000
     84 H38          2.3970    10.1740     4.1090 ha         1 5HV       0.121000
     85 H39          3.2170     8.1950     5.3300 ha         1 5HV       0.114500
@<TRIPOS>BOND
     1     1     2 1   
     2     1    48 1   
     3     1    49 1   
     4     1    50 1   
     5     2     3 1   
     6     2    51 1   
     7     2    52 1   
     8     3     4 1   
     9     3     6 1   
    10     4     5 1   
    11     4    53 1   
    12     4    54 1   
    13     5    55 1   
    14     5    56 1   
    15     5    57 1   
    16     6     7 1   
    17     6    58 1   
    18     6    59 1   
    19     7     8 1   
    20     7    60 1   
    21     7    61 1   
    22     8     9 1   
    23     8    26 1   
    24     9    10 1   
    25     9    62 1   
    26     9    63 1   
    27    10    11 ar  
    28    10    15 ar  
    29    11    12 ar  
    30    11    64 1   
    31    12    13 ar  
    32    12    65 1   
    33    13    14 ar  
    34    13    16 1   
    35    14    15 ar  
    36    14    66 1   
    37    15    67 1   
    38    16    17 ar  
    39    16    21 ar  
    40    17    18 ar  
    41    17    68 1   
    42    18    19 ar  
    43    18    69 1   
    44    19    20 ar  
    45    19    22 1   
    46    20    21 ar  
    47    20    70 1   
    48    21    71 1   
    49    22    23 1   
    50    22    24 1   
    51    22    25 1   
    52    26    27 2   
    53    26    28 1   
    54    28    29 1   
    55    28    72 1   
    56    28    73 1   
    57    29    30 1   
    58    29    38 1   
    59    30    31 1   
    60    30    34 2   
    61    31    32 1   
    62    31    74 1   
    63    31    75 1   
    64    32    33 1   
    65    32    76 1   
    66    32    77 1   
    67    33    34 1   
    68    33    78 1   
    69    33    79 1   
    70    34    35 1   
    71    35    36 2   
    72    35    37 1   
    73    37    38 2   
    74    38    39 1   
    75    39    40 1   
    76    40    41 1   
    77    40    80 1   
    78    40    81 1   
    79    41    42 ar  
    80    41    47 ar  
    81    42    43 ar  
    82    42    82 1   
    83    43    44 ar  
    84    43    83 1   
    85    44    45 1   
    86    44    46 ar  
    87    46    47 ar  
    88    46    84 1   
    89    47    85 1   
@<TRIPOS>SUBSTRUCTURE
     1 5HV         1 TEMP              0 ****  ****    0 ROOT
