@<TRIPOS>MOLECULE
molecule
   44    46     1     0     0
SMALL
bcc


@<TRIPOS>ATOM
      1 O01          0.0000     0.0000     0.0000 oh         1 5HW      -0.523100
      2 C02          1.3580     0.0000     0.0000 ca         1 5HW       0.102100
      3 C03          2.0510     0.0000     1.2040 ca         1 5HW      -0.154000
      4 C04          3.4300    -0.0000     1.2080 ca         1 5HW      -0.105750
      5 C05          4.1290    -0.0020     0.0020 ca         1 5HW      -0.048300
      6 C06          5.6110    -0.0030     0.0020 ce         1 5HW      -0.049400
      7 C07          6.3530     1.1600     0.5450 ca         1 5HW      -0.048300
      8 C08          6.2620     2.4020    -0.0840 ca         1 5HW      -0.105750
      9 C09          6.9540     3.4820     0.4230 ca         1 5HW      -0.154000
     10 C10          7.7410     3.3340     1.5570 ca         1 5HW       0.102100
     11 O11          8.4210     4.4000     2.0540 oh         1 5HW      -0.523100
     12 C12          7.8330     2.0990     2.1850 ca         1 5HW      -0.154000
     13 C13          7.1390     1.0160     1.6870 ca         1 5HW      -0.105750
     14 C14          6.2800    -1.0550    -0.4870 c2         1 5HW      -0.082400
     15 C15          5.5430    -2.2490    -1.0510 c3         1 5HW      -0.047200
     16 C16          6.0920    -3.5180    -0.3900 c3         1 5HW      -0.075400
     17 C17          7.6090    -3.5700    -0.5740 c3         1 5HW      -0.077400
     18 C18          8.2610    -2.3900     0.1500 c3         1 5HW      -0.069700
     19 C19          9.7830    -2.4980     0.0370 c3         1 5HW      -0.089100
     20 C20          7.7920    -1.0770    -0.4960 c3         1 5HW      -0.045200
     21 C21          3.4300    -0.0020    -1.2060 ca         1 5HW      -0.105750
     22 C22          2.0520    -0.0070    -1.2030 ca         1 5HW      -0.154000
     23 H1          -0.3140     0.8890    -0.0030 ho         1 5HW       0.418500
     24 H2           1.5080     0.0010     2.1410 ha         1 5HW       0.140000
     25 H3           3.9690    -0.0000     2.1470 ha         1 5HW       0.138500
     26 H5           5.6490     2.5180    -0.9690 ha         1 5HW       0.138500
     27 H6           6.8830     4.4460    -0.0650 ha         1 5HW       0.140000
     28 H7           7.8800     4.8540     2.6790 ho         1 5HW       0.418500
     29 H8           8.4460     1.9880     3.0720 ha         1 5HW       0.140000
     30 H9           7.2120     0.0530     2.1770 ha         1 5HW       0.138500
     31 H11          4.4850    -2.1560    -0.8370 hc         1 5HW       0.056200
     32 H12          5.7000    -2.3000    -2.1220 hc         1 5HW       0.056200
     33 H13          5.6430    -4.3880    -0.8530 hc         1 5HW       0.044200
     34 H14          5.8570    -3.5030     0.6680 hc         1 5HW       0.044200
     35 H15          7.9890    -4.4970    -0.1610 hc         1 5HW       0.042700
     36 H16          7.8450    -3.5170    -1.6300 hc         1 5HW       0.042700
     37 H17          7.9690    -2.4010     1.1930 hc         1 5HW       0.051700
     38 H18         10.0850    -2.2970    -0.9830 hc         1 5HW       0.035033
     39 H19         10.0950    -3.4970     0.3170 hc         1 5HW       0.035033
     40 H20         10.2460    -1.7760     0.6990 hc         1 5HW       0.035033
     41 H21          8.1510    -1.0260    -1.5170 hc         1 5HW       0.058700
     42 H22          8.1720    -0.2360     0.0720 hc         1 5HW       0.058700
     43 H23          3.9710    -0.0060    -2.1450 ha         1 5HW       0.138500
     44 H24          1.5090    -0.0070    -2.1410 ha         1 5HW       0.140000
@<TRIPOS>BOND
     1     1     2 1   
     2     3     2 ar  
     3     3     4 ar  
     4     2    22 ar  
     5     4     5 ar  
     6    22    21 ar  
     7     5    21 ar  
     8     5     6 1   
     9    13    12 ar  
    10    13     7 ar  
    11    12    10 ar  
    12     6     7 1   
    13     6    14 2   
    14     7     8 ar  
    15    10    11 1   
    16    10     9 ar  
    17     8     9 ar  
    18    15    14 1   
    19    15    16 1   
    20    14    20 1   
    21    16    17 1   
    22    20    18 1   
    23    17    18 1   
    24    18    19 1   
    25     1    23 1   
    26     3    24 1   
    27     4    25 1   
    28     8    26 1   
    29     9    27 1   
    30    11    28 1   
    31    12    29 1   
    32    13    30 1   
    33    15    31 1   
    34    15    32 1   
    35    16    33 1   
    36    16    34 1   
    37    17    35 1   
    38    17    36 1   
    39    18    37 1   
    40    19    38 1   
    41    19    39 1   
    42    19    40 1   
    43    20    41 1   
    44    20    42 1   
    45    21    43 1   
    46    22    44 1   
@<TRIPOS>SUBSTRUCTURE
     1 5HW         1 TEMP              0 ****  ****    0 ROOT
