@<TRIPOS>MOLECULE
molecule
   47    50     1     0     0
SMALL
bcc


@<TRIPOS>ATOM
      1 C01          0.0000     0.0000     0.0000 c3         1 5HX      -0.065400
      2 C02          1.5210     0.0000     0.0000 c3         1 5HX      -0.090400
      3 C03          2.1260     0.0000     1.3960 c3         1 5HX      -0.065400
      4 C04          1.5410    -1.0920     2.2890 c3         1 5HX      -0.031500
      5 C05          1.8720    -2.4880     1.7690 c3         1 5HX      -0.065400
      6 C06          1.2250    -2.7860     0.4250 c3         1 5HX      -0.090400
      7 C07         -0.2650    -2.4830     0.3880 c3         1 5HX      -0.065400
      8 C08         -0.5930    -1.0810     0.9000 c3         1 5HX      -0.031500
      9 C09          0.0290    -0.9350     2.2790 c2         1 5HX      -0.075400
     10 C10         -0.6860    -0.6900     3.3800 ce         1 5HX      -0.044400
     11 C11         -0.0070    -0.5600     4.6910 ca         1 5HX      -0.038800
     12 C12         -2.1590    -0.5500     3.2900 ca         1 5HX      -0.045800
     13 C13          0.6550    -1.6540     5.2480 ca         1 5HX      -0.118000
     14 C14          1.2860    -1.5260     6.4690 ca         1 5HX      -0.130000
     15 C15          1.2620    -0.3180     7.1400 ca         1 5HX      -0.130000
     16 C16          0.6060     0.7700     6.5930 ca         1 5HX      -0.130000
     17 C17         -0.0240     0.6570     5.3710 ca         1 5HX      -0.118000
     18 C18         -2.9900    -1.4790     3.9170 ca         1 5HX      -0.105500
     19 C19         -4.3590    -1.3450     3.8310 ca         1 5HX      -0.154000
     20 C20         -4.9120    -0.2850     3.1230 ca         1 5HX       0.101100
     21 C21         -4.0880     0.6410     2.4980 ca         1 5HX      -0.154000
     22 C22         -2.7180     0.5160     2.5840 ca         1 5HX      -0.105500
     23 O01         -6.2620    -0.1560     3.0410 oh         1 5HX      -0.524100
     24 H1          -0.3470    -0.1620    -1.0130 hc         1 5HX       0.040825
     25 H2          -0.3470     0.9670     0.3430 hc         1 5HX       0.040825
     26 H3           1.8670     0.8820    -0.5260 hc         1 5HX       0.045700
     27 H4           1.8670    -0.8820    -0.5260 hc         1 5HX       0.045700
     28 H5           1.9410     0.9630     1.8570 hc         1 5HX       0.040825
     29 H6           3.1950    -0.1540     1.3130 hc         1 5HX       0.040825
     30 H7           1.9150    -0.9790     3.3000 hc         1 5HX       0.067700
     31 H8           2.9460    -2.5750     1.6640 hc         1 5HX       0.040825
     32 H9           1.5260    -3.2190     2.4900 hc         1 5HX       0.040825
     33 H10          1.3690    -3.8360     0.1970 hc         1 5HX       0.045700
     34 H11          1.7170    -2.1910    -0.3350 hc         1 5HX       0.045700
     35 H12         -0.6140    -2.5710    -0.6340 hc         1 5HX       0.040825
     36 H13         -0.7840    -3.2080     1.0040 hc         1 5HX       0.040825
     37 H14         -1.6670    -0.9560     0.9660 hc         1 5HX       0.067700
     38 H17          0.6750    -2.6020     4.7230 ha         1 5HX       0.134500
     39 H18          1.8010    -2.3750     6.9020 ha         1 5HX       0.129000
     40 H19          1.7570    -0.2240     8.0990 ha         1 5HX       0.128000
     41 H20          0.5920     1.7150     7.1230 ha         1 5HX       0.129000
     42 H21         -0.5370     1.5100     4.9430 ha         1 5HX       0.134500
     43 H22         -2.5600    -2.3050     4.4690 ha         1 5HX       0.138500
     44 H23         -5.0050    -2.0660     4.3180 ha         1 5HX       0.139500
     45 H24         -4.5220     1.4670     1.9480 ha         1 5HX       0.139500
     46 H25         -2.0760     1.2390     2.0960 ha         1 5HX       0.138500
     47 H26         -6.5730     0.3690     3.7600 ho         1 5HX       0.418000
@<TRIPOS>BOND
     1     2     1 1   
     2     2     3 1   
     3     1     8 1   
     4     3     4 1   
     5     8     7 1   
     6     8     9 1   
     7     4     9 1   
     8     4     5 1   
     9     7     6 1   
    10     6     5 1   
    11     9    10 2   
    12    22    21 ar  
    13    22    12 ar  
    14    21    20 ar  
    15    10    12 1   
    16    10    11 1   
    17    13    11 ar  
    18    13    14 ar  
    19    12    18 ar  
    20    11    17 ar  
    21    14    15 ar  
    22    20    23 1   
    23    20    19 ar  
    24    17    16 ar  
    25    18    19 ar  
    26    15    16 ar  
    27     1    24 1   
    28     1    25 1   
    29     2    26 1   
    30     2    27 1   
    31     3    28 1   
    32     3    29 1   
    33     4    30 1   
    34     5    31 1   
    35     5    32 1   
    36     6    33 1   
    37     6    34 1   
    38     7    35 1   
    39     7    36 1   
    40     8    37 1   
    41    13    38 1   
    42    14    39 1   
    43    15    40 1   
    44    16    41 1   
    45    17    42 1   
    46    18    43 1   
    47    19    44 1   
    48    21    45 1   
    49    22    46 1   
    50    23    47 1   
@<TRIPOS>SUBSTRUCTURE
     1 5HX         1 TEMP              0 ****  ****    0 ROOT
