@<TRIPOS>MOLECULE
molecule
   16    16     1     0     0
SMALL
bcc


@<TRIPOS>ATOM
      1 C            0.0000     0.0000     0.0000 c          1 5HY       0.689500
      2 N            1.8610     0.0000     1.4320 ns         1 5HY      -0.560900
      3 O           -0.7320     0.0050    -0.9660 o          1 5HY      -0.613500
      4 CA           1.5150     0.0000     0.0000 c3         1 5HY       0.029700
      5 CB           2.0550     1.2580    -0.6840 c3         1 5HY      -0.189400
      6 CG           3.5560     1.1730    -0.7790 c          1 5HY       0.892600
      7 OAB          0.6220     0.0010     3.3220 o          1 5HY      -0.699500
      8 NAF         -0.3660     0.0010     1.2970 ns         1 5HY      -0.596500
      9 CAI          0.6980     0.0000     2.1080 c          1 5HY       0.799500
     10 OD1          4.2500     2.1720    -1.3460 o          1 5HY      -0.846800
     11 OD2          4.1360     0.2060    -0.3430 o          1 5HY      -0.846800
     12 HN           2.7820    -0.0000     1.8260 hn         1 5HY       0.389500
     13 HA           1.8940    -0.8940    -0.4800 h1         1 5HY       0.103700
     14 HB           1.6340     1.3360    -1.6790 hc         1 5HY       0.054200
     15 HBA          1.7780     2.1310    -0.1050 hc         1 5HY       0.054200
     16 HNAF        -1.3150     0.0010     1.6140 hn         1 5HY       0.339500
@<TRIPOS>BOND
     1     3     1 2
     2     1     4 1
     3     1     8 1
     4     4     2 1
     5     2     9 1
     6     2    12 1
     7     4     5 1
     8     4    13 1
     9     5     6 1
    10     5    14 1
    11     5    15 1
    12     6    11 1
    13     6    10 1
    14     9     7 2
    15     8     9 1
    16     8    16 1
@<TRIPOS>SUBSTRUCTURE
     1 5HY         1 TEMP              0 ****  ****    0 ROOT
