@<TRIPOS>MOLECULE
molecule
   48    51     1     0     0
SMALL
bcc


@<TRIPOS>ATOM
      1 C01          0.0000     0.0000     0.0000 c3         1 5HZ      -0.065400
      2 C02          1.5220     0.0000     0.0000 c3         1 5HZ      -0.089400
      3 C03          2.1270     0.0000     1.3960 c3         1 5HZ      -0.065400
      4 C04          1.5390    -1.0860     2.2940 c3         1 5HZ      -0.030500
      5 C05          1.8720    -2.4860     1.7820 c3         1 5HZ      -0.065400
      6 C06          1.2330    -2.7870     0.4340 c3         1 5HZ      -0.089400
      7 C07         -0.2570    -2.4840     0.3890 c3         1 5HZ      -0.065400
      8 C08         -0.5910    -1.0840     0.8980 c3         1 5HZ      -0.030500
      9 C09          0.0260    -0.9320     2.2790 c2         1 5HZ      -0.078400
     10 C10         -0.6920    -0.6850     3.3770 ce         1 5HZ      -0.040400
     11 C11         -2.1650    -0.5470     3.2820 ca         1 5HZ      -0.048300
     12 C12         -0.0170    -0.5490     4.6900 ca         1 5HZ      -0.048300
     13 C13         -2.9950    -1.4760     3.9090 ca         1 5HZ      -0.105000
     14 C14         -4.3650    -1.3440     3.8210 ca         1 5HZ      -0.154000
     15 C15         -4.9180    -0.2890     3.1080 ca         1 5HZ       0.102100
     16 C16         -4.0940     0.6380     2.4820 ca         1 5HZ      -0.154000
     17 C17         -2.7240     0.5150     2.5720 ca         1 5HZ      -0.105000
     18 C18          0.6460    -1.6410     5.2500 ca         1 5HZ      -0.105000
     19 C19          1.2770    -1.5100     6.4690 ca         1 5HZ      -0.154000
     20 C20          1.2540    -0.2930     7.1380 ca         1 5HZ       0.102100
     21 C21          0.5940     0.7950     6.5820 ca         1 5HZ      -0.154000
     22 C22         -0.0380     0.6710     5.3630 ca         1 5HZ      -0.105000
     23 O01          1.8770    -0.1670     8.3390 oh         1 5HZ      -0.522100
     24 O02         -6.2680    -0.1610     3.0220 oh         1 5HZ      -0.522100
     25 H1          -0.3480     0.9660     0.3460 hc         1 5HZ       0.040825
     26 H2          -0.3480    -0.1600    -1.0130 hc         1 5HZ       0.040825
     27 H3           1.8680    -0.8820    -0.5260 hc         1 5HZ       0.045700
     28 H4           1.8680     0.8820    -0.5260 hc         1 5HZ       0.045700
     29 H5           3.1950    -0.1590     1.3130 hc         1 5HZ       0.040825
     30 H6           1.9460     0.9650     1.8530 hc         1 5HZ       0.040825
     31 H7           1.9100    -0.9670     3.3050 hc         1 5HZ       0.065700
     32 H8           1.5200    -3.2130     2.5030 hc         1 5HZ       0.040825
     33 H9           2.9470    -2.5740     1.6840 hc         1 5HZ       0.040825
     34 H10          1.3790    -3.8370     0.2100 hc         1 5HZ       0.045700
     35 H11          1.7290    -2.1930    -0.3240 hc         1 5HZ       0.045700
     36 H12         -0.7790    -3.2100     1.0010 hc         1 5HZ       0.040825
     37 H13         -0.5990    -2.5720    -0.6350 hc         1 5HZ       0.040825
     38 H14         -1.6650    -0.9620     0.9610 hc         1 5HZ       0.065700
     39 H17         -2.5650    -2.3000     4.4660 ha         1 5HZ       0.138500
     40 H18         -5.0110    -2.0650     4.3070 ha         1 5HZ       0.140500
     41 H19         -4.5280     1.4610     1.9290 ha         1 5HZ       0.140500
     42 H20         -2.0820     1.2380     2.0840 ha         1 5HZ       0.138500
     43 H21          0.6640    -2.5910     4.7300 ha         1 5HZ       0.138500
     44 H22          1.7920    -2.3570     6.9060 ha         1 5HZ       0.140500
     45 H23          0.5780     1.7430     7.1060 ha         1 5HZ       0.140500
     46 H24         -0.5530     1.5200     4.9310 ha         1 5HZ       0.138500
     47 H25          2.7700     0.1040     8.2030 ho         1 5HZ       0.418000
     48 H26         -6.5810    -0.6300     2.2660 ho         1 5HZ       0.418000
@<TRIPOS>BOND
     1    23    20 1   
     2    19    20 ar  
     3    19    18 ar  
     4    20    21 ar  
     5    18    12 ar  
     6    21    22 ar  
     7    12    22 ar  
     8    12    10 1   
     9    17    16 ar  
    10    17    11 ar  
    11    16    15 ar  
    12    10    11 1   
    13    10     9 2   
    14    11    13 ar  
    15    15    24 1   
    16    15    14 ar  
    17    13    14 ar  
    18     5     4 1   
    19     5     6 1   
    20     9     4 1   
    21     9     8 1   
    22     4     3 1   
    23     6     7 1   
    24     3     2 1   
    25     8     7 1   
    26     8     1 1   
    27     1     2 1   
    28     1    25 1   
    29     1    26 1   
    30     2    27 1   
    31     2    28 1   
    32     3    29 1   
    33     3    30 1   
    34     4    31 1   
    35     5    32 1   
    36     5    33 1   
    37     6    34 1   
    38     6    35 1   
    39     7    36 1   
    40     7    37 1   
    41     8    38 1   
    42    13    39 1   
    43    14    40 1   
    44    16    41 1   
    45    17    42 1   
    46    18    43 1   
    47    19    44 1   
    48    21    45 1   
    49    22    46 1   
    50    23    47 1   
    51    24    48 1   
@<TRIPOS>SUBSTRUCTURE
     1 5HZ         1 TEMP              0 ****  ****    0 ROOT
