@<TRIPOS>MOLECULE
5I1
   74    78     1     0     0
SMALL
bcc


@<TRIPOS>ATOM
      1 N1           0.0000     0.0000     0.0000 nb         1 5I1      -0.696000
      2 C2           1.3250     0.0000     0.0000 ca         1 5I1       0.722900
      3 N3           2.0220     0.0000     1.1250 nb         1 5I1      -0.681000
      4 C4           1.4030     0.0000     2.3050 ca         1 5I1       0.586100
      5 C5           0.0020     0.0010     2.3360 ca         1 5I1      -0.355200
      6 Cl5         -0.8530     0.0020     3.8470 cl         1 5I1      -0.005400
      7 C6          -0.6820     0.0010     1.1370 ca         1 5I1       0.500200
      8 CAB          0.8770     1.4380    -2.8410 c3         1 5I1       0.030000
      9 NAD          0.2390     1.4330    -4.1660 n          1 5I1      -0.140800
     10 CAG         -7.4510    -2.9080   -11.8590 c3         1 5I1       0.181600
     11 CAH         -0.9680     2.0040    -4.3480 c          1 5I1       0.613700
     12 CAI          2.1830    -0.0000     3.5630 cc         1 5I1      -0.239000
     13 CAJ         -2.8920     1.7370    -8.1260 ca         1 5I1      -0.073400
     14 CAK         -1.5240     1.9840    -8.0590 ca         1 5I1      -0.131000
     15 CAL         -0.8980     2.0710    -6.8370 ca         1 5I1      -0.052500
     16 CAM         -1.6370     1.9120    -5.6610 ca         1 5I1      -0.163600
     17 CAN         -3.0100     1.6640    -5.7310 ca         1 5I1      -0.052500
     18 CAO         -3.6310     1.5780    -6.9570 ca         1 5I1      -0.131000
     19 CAP         -4.5400     0.7890    -9.5470 c          1 5I1       0.560100
     20 NAR         -7.9810    -1.5740   -12.1690 n3         1 5I1      -0.542600
     21 CAT          2.1090    -0.6070    -3.5770 c3         1 5I1      -0.039400
     22 OAU         -4.9620     0.1430    -8.6120 o          1 5I1      -0.625100
     23 CAV          3.3040    -0.8920     3.9020 ca         1 5I1      -0.061800
     24 CAW          3.7200    -0.5160     5.1900 ca         1 5I1      -0.238200
     25 CAX          4.7790    -1.1920     5.7870 ca         1 5I1      -0.101000
     26 CAY          5.4050    -2.2170     5.1120 ca         1 5I1      -0.087000
     27 CAZ          4.9890    -2.5820     3.8390 ca         1 5I1      -0.129000
     28 CBA          1.3120    -0.6380    -4.8840 c3         1 5I1      -0.031400
     29 NBB          1.9990     0.0010    -1.2100 nu         1 5I1      -0.479900
     30 CBD          3.9500    -1.9310     3.2350 ca         1 5I1      -0.040000
     31 CBE          2.0080     0.8260     4.6260 cd         1 5I1      -0.239100
     32 CBG          0.9420     0.7930    -5.2860 c3         1 5I1      -0.003000
     33 CBH          1.2470    -0.0010    -2.4670 c3         1 5I1       0.117500
     34 CBJ         -5.1540     0.6230   -10.9140 c3         1 5I1      -0.097400
     35 NBK          2.9120     0.5230     5.5980 na         1 5I1       0.373600
     36 CBL         -6.2790    -0.4120   -10.8460 c3         1 5I1      -0.022400
     37 CBM         -6.9020    -0.5800   -12.2340 c3         1 5I1       0.150800
     38 CBN         -8.7560    -1.5920   -13.4160 c3         1 5I1       0.181600
     39 H6          -1.7660     0.0010     1.1250 h4         1 5I1      -0.008900
     40 HAB          1.7730     2.0460    -2.8730 h1         1 5I1       0.044200
     41 HABA         0.1860     1.8370    -2.1080 h1         1 5I1       0.044200
     42 HAG         -8.0700    -3.6610   -12.3330 h1         1 5I1       0.001533
     43 HAGA        -6.4370    -2.9890   -12.2300 h1         1 5I1       0.001533
     44 HAGB        -7.4560    -3.0590   -10.7860 h1         1 5I1       0.001533
     45 HAK         -0.9520     2.1070    -8.9700 ha         1 5I1       0.128000
     46 HAL          0.1670     2.2630    -6.7860 ha         1 5I1       0.121500
     47 HAN         -3.5860     1.5400    -4.8220 ha         1 5I1       0.121500
     48 HAO         -4.6950     1.3860    -7.0120 ha         1 5I1       0.128000
     49 HAT          2.9980    -0.0040    -3.7120 hc         1 5I1       0.021200
     50 HATA         2.3890    -1.6170    -3.3040 hc         1 5I1       0.021200
     51 HAX          5.1100    -0.9140     6.7800 ha         1 5I1       0.098000
     52 HAY          6.2300    -2.7420     5.5780 ha         1 5I1       0.100000
     53 HAZ          5.4910    -3.3900     3.3200 ha         1 5I1       0.102000
     54 HBA          0.4080    -1.2170    -4.7410 hc         1 5I1       0.024200
     55 HBAA         1.9160    -1.0860    -5.6630 hc         1 5I1       0.024200
     56 HNBB         3.0000     0.0070    -1.2260 hn         1 5I1       0.301800
     57 HBD          3.6310    -2.2210     2.2410 ha         1 5I1       0.108000
     58 HBE          1.2620     1.6080     4.6910 h4         1 5I1       0.148000
     59 HBG          0.2950     0.7690    -6.1540 h1         1 5I1       0.043200
     60 HBGA         1.8430     1.3500    -5.5130 h1         1 5I1       0.043200
     61 HBH          0.3430    -0.5870    -2.3530 h1         1 5I1       0.066700
     62 HNBI        -3.1520     2.1570   -10.1480 hn         1 5I1       0.166500
     63 HBJ         -5.5560     1.5720   -11.2470 hc         1 5I1       0.027700
     64 HBJA        -4.3960     0.2870   -11.6120 hc         1 5I1       0.027700
     65 HNBK         2.9840     0.9920     6.4790 hn         1 5I1       0.113700
     66 HBL         -5.8770    -1.3610   -10.5130 hc         1 5I1       0.039200
     67 HBLA        -7.0370    -0.0760   -10.1490 hc         1 5I1       0.039200
     68 HBM         -7.3040     0.3690   -12.5670 h1         1 5I1       0.005200
     69 HBMA        -6.1430    -0.9160   -12.9310 h1         1 5I1       0.005200
     70 HBN         -9.5450    -2.3310   -13.3410 h1         1 5I1       0.001533
     71 HBNA        -9.1930    -0.6150   -13.5840 h1         1 5I1       0.001533
     72 HBNB        -8.1040    -1.8430   -14.2440 h1         1 5I1       0.001533
     73 NBI         -3.5240     1.6550    -9.3660 ns         1 5I1      -0.035100
     74 OAE         -1.5070     2.5950    -3.4330 o          1 5I1      -0.640100
@<TRIPOS>BOND
     1     1     2 ar  
     2     1     7 ar  
     3     2     3 ar  
     4     2    29 1   
     5     3     4 ar  
     6     4     5 ar  
     7     4    12 1   
     8     5     6 1   
     9     5     7 ar  
    10     7    39 1   
    11     8     9 1   
    12     8    33 1   
    13     8    40 1   
    14     8    41 1   
    15     9    11 1   
    16     9    32 1   
    17    10    20 1   
    18    10    42 1   
    19    10    43 1   
    20    10    44 1   
    21    11    16 1   
    22    11    74 2   
    23    12    23 1   
    24    12    31 2   
    25    13    14 ar  
    26    13    18 ar  
    27    13    73 1   
    28    14    15 ar  
    29    14    45 1   
    30    15    16 ar  
    31    15    46 1   
    32    16    17 ar  
    33    17    18 ar  
    34    17    47 1   
    35    18    48 1   
    36    19    22 2   
    37    19    34 1   
    38    19    73 1   
    39    20    37 1   
    40    20    38 1   
    41    21    28 1   
    42    21    33 1   
    43    21    49 1   
    44    21    50 1   
    45    23    24 ar  
    46    23    30 ar  
    47    24    25 ar  
    48    24    35 1   
    49    25    26 ar  
    50    25    51 1   
    51    26    27 ar  
    52    26    52 1   
    53    27    30 ar  
    54    27    53 1   
    55    28    32 1   
    56    28    54 1   
    57    28    55 1   
    58    29    33 1   
    59    29    56 1   
    60    30    57 1   
    61    31    35 1   
    62    31    58 1   
    63    32    59 1   
    64    32    60 1   
    65    33    61 1   
    66    34    36 1   
    67    34    63 1   
    68    34    64 1   
    69    35    65 1   
    70    36    37 1   
    71    36    66 1   
    72    36    67 1   
    73    37    68 1   
    74    37    69 1   
    75    38    70 1   
    76    38    71 1   
    77    38    72 1   
    78    62    73 1   
@<TRIPOS>SUBSTRUCTURE
     1 5I1         1 TEMP              0 ****  ****    0 ROOT
