@<TRIPOS>MOLECULE
5I5
   32    34     1     0     0
SMALL
bcc


@<TRIPOS>ATOM
      1 N1           0.0000     0.0000     0.0000 nb         1 5I5      -0.720000
      2 C1           1.3530     0.0000     0.0000 ca         1 5I5       0.594200
      3 C2           2.0400     0.0000     1.2130 ca         1 5I5      -0.334400
      4 C3           1.2660     0.0000     2.3670 ca         1 5I5       0.285800
      5 N2          -0.0770     0.0010     2.4330 nb         1 5I5      -0.677000
      6 C4          -0.6220     0.0000     1.2000 ca         1 5I5       0.679900
      7 C5           3.3970    -0.0000     1.6260 cc         1 5I5       0.125600
      8 C6           3.4110    -0.0010     3.0040 cd         1 5I5      -0.242100
      9 N3           2.1110     0.0010     3.4480 na         1 5I5       0.295900
     10 I            5.0980    -0.0000     0.4760 i          1 5I5      -0.218800
     11 N4           2.0260     0.0000    -1.2350 nv         1 5I5      -0.545500
     12 C7           2.8850    -1.4830     6.2980 c3         1 5I5       0.141100
     13 C8           1.6170    -1.3970     5.4680 c3         1 5I5       0.132100
     14 C9           1.7050     0.0000     4.8550 c3         1 5I5       0.125800
     15 O3           2.6590     0.7590     5.6300 os         1 5I5      -0.392600
     16 C10          3.0720    -0.0440     6.7490 c3         1 5I5       0.162100
     17 O2           2.7850    -2.3730     7.3890 oh         1 5I5      -0.548800
     18 O1           0.4550    -1.4780     6.2910 oh         1 5I5      -0.550800
     19 C11          4.5040     0.2920     7.1210 c3         1 5I5      -0.002100
     20 H4          -1.7050     0.0000     1.1670 h5         1 5I5      -0.017900
     21 H6           4.2960     0.0140     3.6290 h4         1 5I5       0.162000
     22 HN41         2.8520     0.5530    -1.3550 hn         1 5I5       0.279300
     23 HN42         1.6680    -0.5370    -2.0000 hn         1 5I5       0.279300
     24 H7           3.7130    -1.7710     5.6620 h1         1 5I5       0.012700
     25 H8           1.6090    -2.1570     4.6970 h1         1 5I5       0.021700
     26 H9           0.7350     0.4760     4.9410 h2         1 5I5       0.078700
     27 H10          2.4210     0.1550     7.5910 h1         1 5I5       0.045700
     28 HO2          3.2980    -3.1450     7.2140 ho         1 5I5       0.389000
     29 HO1         -0.0720    -2.2150     6.0310 ho         1 5I5       0.398000
     30 H111         5.1000    -0.6130     7.1160 hc         1 5I5       0.013700
     31 H112         4.5260     0.7330     8.1100 hc         1 5I5       0.013700
     32 H113         4.9090     0.9950     6.4030 hc         1 5I5       0.013700
@<TRIPOS>BOND
     1     1     2 ar  
     2     1     6 ar  
     3     2     3 ar  
     4     2    11 1   
     5     3     4 ar  
     6     3     7 1   
     7     4     5 ar  
     8     4     9 1   
     9     5     6 ar  
    10     6    20 1   
    11     7     8 2   
    12     7    10 1   
    13     8     9 1   
    14     8    21 1   
    15     9    14 1   
    16    11    22 1   
    17    11    23 1   
    18    12    13 1   
    19    12    16 1   
    20    12    17 1   
    21    12    24 1   
    22    13    14 1   
    23    13    18 1   
    24    13    25 1   
    25    14    15 1   
    26    14    26 1   
    27    15    16 1   
    28    16    19 1   
    29    16    27 1   
    30    17    28 1   
    31    18    29 1   
    32    19    30 1   
    33    19    31 1   
    34    19    32 1   
@<TRIPOS>SUBSTRUCTURE
     1 5I5         1 TEMP              0 ****  ****    0 ROOT
