@<TRIPOS>MOLECULE
5ID
   33    35     1     0     0
SMALL
bcc


@<TRIPOS>ATOM
      1 O5'          0.0000     0.0000     0.0000 oh         1 5ID      -0.578800
      2 C5'          1.4290     0.0000     0.0000 c3         1 5ID       0.224400
      3 C4'          1.9390     0.0000     1.4420 c3         1 5ID       0.163100
      4 O4'          1.5980    -1.2420     2.0960 os         1 5ID      -0.383600
      5 C1'          2.5090    -1.3480     3.2120 c3         1 5ID       0.140800
      6 N9           2.6100    -2.7400     3.6570 na         1 5ID       0.304900
      7 C8           2.3110    -3.8350     2.8880 cc         1 5ID      -0.227100
      8 C7           2.5110    -4.9580     3.5970 cd         1 5ID       0.141600
      9 C5           2.9790    -4.5450     4.9190 ca         1 5ID      -0.353400
     10 C6           3.3480    -5.2120     6.0960 ca         1 5ID       0.593200
     11 N1           3.7290    -4.4840     7.1420 nb         1 5ID      -0.694000
     12 C2           3.7550    -3.1650     7.0790 ca         1 5ID       0.658900
     13 N3           3.4130    -2.4970     5.9990 nb         1 5ID      -0.640000
     14 C4           3.0180    -3.1380     4.9000 ca         1 5ID       0.292800
     15 N6           3.3240    -6.5930     6.1660 nv         1 5ID      -0.603500
     16 C2'          3.8670    -0.8580     2.6630 c3         1 5ID       0.119100
     17 O2'          4.5740    -0.1090     3.6530 oh         1 5ID      -0.539800
     18 C3'          3.4840     0.0480     1.4690 c3         1 5ID       0.129100
     19 O3'          3.9390     1.3850     1.6870 oh         1 5ID      -0.549800
     20 IAE          2.2160    -6.9240     2.9350 i          1 5ID      -0.227800
     21 H5'         -0.3140     0.0130    -0.8890 ho         1 5ID       0.391000
     22 H5'1         1.7910    -0.8840    -0.5110 h1         1 5ID      -0.007300
     23 H5'2         1.7900     0.8850    -0.5110 h1         1 5ID      -0.007300
     24 H4'          1.5290     0.8380     1.9920 h1         1 5ID       0.053700
     25 H1'          2.1820    -0.7100     4.0240 h2         1 5ID       0.071700
     26 H8           1.9660    -3.8000     1.8610 h4         1 5ID       0.163000
     27 H2           4.0720    -2.6100     7.9540 h5         1 5ID      -0.003900
     28 H6N1         3.9440    -7.1340     5.5960 hn         1 5ID       0.279800
     29 H6N2         2.7280    -7.0490     6.8280 hn         1 5ID       0.279800
     30 H2'          4.4590    -1.6990     2.3210 h1         1 5ID       0.018700
     31 HA           5.5000    -0.2660     3.5640 ho         1 5ID       0.390000
     32 H3'          3.8890    -0.3520     0.5480 h1         1 5ID       0.011700
     33 HB           4.6630     1.5680     1.1120 ho         1 5ID       0.387000
@<TRIPOS>BOND
     1     1     2 1   
     2     1    21 1   
     3     2     3 1   
     4     2    22 1   
     5     2    23 1   
     6     3     4 1   
     7     3    18 1   
     8     3    24 1   
     9     4     5 1   
    10     5     6 1   
    11     5    16 1   
    12     5    25 1   
    13     6     7 1   
    14     6    14 1   
    15     7     8 2   
    16     7    26 1   
    17     8     9 1   
    18     8    20 1   
    19     9    10 ar  
    20     9    14 ar  
    21    10    11 ar  
    22    10    15 1   
    23    11    12 ar  
    24    12    13 ar  
    25    12    27 1   
    26    13    14 ar  
    27    15    28 1   
    28    15    29 1   
    29    16    17 1   
    30    16    18 1   
    31    16    30 1   
    32    17    31 1   
    33    18    19 1   
    34    18    32 1   
    35    19    33 1   
@<TRIPOS>SUBSTRUCTURE
     1 5ID         1 TEMP              0 ****  ****    0 ROOT
