@<TRIPOS>MOLECULE
molecule
   55    57     1     0     0
SMALL
bcc


@<TRIPOS>ATOM
      1 C1           0.0000     0.0000     0.0000 ca         1 5IG       0.753200
      2 N1           1.3280     0.0000     0.0000 nb         1 5IG      -0.826000
      3 C2           2.0050     0.0000     1.1390 ca         1 5IG       0.972900
      4 N2           1.3970    -0.0010     2.3160 nb         1 5IG      -0.793000
      5 C3           0.0760    -0.0020     2.4030 ca         1 5IG       0.524600
      6 C4          -0.6800    -0.0060     1.2330 cp         1 5IG      -0.377600
      7 N3          -0.7030     0.0000    -1.1910 nv         1 5IG      -1.012500
      8 N4           3.3880    -0.0010     1.0980 nv         1 5IG      -1.045500
      9 C6          -0.6010    -0.0030     3.7490 c3         1 5IG      -0.137700
     10 C7          -2.8430    -1.1040     1.8120 ca         1 5IG      -0.126000
     11 C8          -4.2220    -1.1080     1.8560 ca         1 5IG      -0.123000
     12 C9          -4.9420    -0.0210     1.3780 ca         1 5IG       0.074100
     13 C10         -4.2610     1.0770     0.8570 ca         1 5IG       0.011600
     14 C11         -2.8800     1.0900     0.8100 ca         1 5IG      -0.137000
     15 C12         -2.1620    -0.0080     1.2840 cp         1 5IG      -0.014000
     16 O3          -6.2960    -0.0470     1.4160 os         1 5IG      -0.291900
     17 C14         -6.7830     1.2360     1.7870 c3         1 5IG       0.070800
     18 C15         -6.2730     2.2890     0.8350 c          1 5IG       0.684500
     19 N5          -4.9980     2.1780     0.3870 n          1 5IG      -0.377000
     20 C16         -4.4200     3.1540    -0.5410 c3         1 5IG       0.112000
     21 C17         -3.7570     4.2810     0.2540 c3         1 5IG      -0.110400
     22 C18         -3.1520     5.3000    -0.7140 c3         1 5IG       0.126400
     23 O1          -2.5320     6.3530     0.0280 os         1 5IG      -0.405600
     24 C19         -1.9910     7.2670    -0.9270 c3         1 5IG       0.115700
     25 C21         -8.3130     1.2250     1.7570 c3         1 5IG      -0.093600
     26 C20         -6.3080     1.5680     3.2030 c3         1 5IG      -0.093600
     27 O4          -6.9830     3.2080     0.4820 o          1 5IG      -0.611500
     28 C5          -0.8310     1.4400     4.2050 c3         1 5IG      -0.083100
     29 HN31        -1.6150    -0.4100    -1.2340 hn         1 5IG       0.444800
     30 HN32        -0.2820     0.3690    -2.0210 hn         1 5IG       0.444800
     31 HN41         3.8980    -0.7950     1.4320 hn         1 5IG       0.445300
     32 HN42         3.8790     0.7940     0.7390 hn         1 5IG       0.445300
     33 H61         -1.5530    -0.5140     3.6740 hc         1 5IG       0.062700
     34 H62          0.0280    -0.5130     4.4690 hc         1 5IG       0.062700
     35 H8          -4.7450    -1.9630     2.2680 ha         1 5IG       0.149000
     36 H11         -2.3620     1.9000     0.3110 ha         1 5IG       0.150000
     37 H161        -3.6790     2.6670    -1.1630 h1         1 5IG       0.064200
     38 H162        -5.2030     3.5660    -1.1660 h1         1 5IG       0.064200
     39 H171        -4.4980     4.7690     0.8760 hc         1 5IG       0.066200
     40 H172        -2.9750     3.8690     0.8800 hc         1 5IG       0.066200
     41 H181        -2.4110     4.8120    -1.3360 h1         1 5IG       0.025700
     42 H182        -3.9340     5.7120    -1.3400 h1         1 5IG       0.025700
     43 H191        -1.2670     6.7540    -1.5480 h1         1 5IG       0.031367
     44 H192        -2.7890     7.6560    -1.5470 h1         1 5IG       0.031367
     45 H193        -1.5050     8.0850    -0.4080 h1         1 5IG       0.031367
     46 H211        -8.6880     2.1870     2.0870 hc         1 5IG       0.056200
     47 H212        -8.6820     0.4480     2.4160 hc         1 5IG       0.056200
     48 H213        -8.6530     1.0330     0.7470 hc         1 5IG       0.056200
     49 H201        -6.3830     0.6840     3.8260 hc         1 5IG       0.056200
     50 H202        -6.9270     2.3550     3.6170 hc         1 5IG       0.056200
     51 H203        -5.2770     1.9000     3.1700 hc         1 5IG       0.056200
     52 H51         -1.8040     1.5190     4.6750 hc         1 5IG       0.040033
     53 H52         -0.0630     1.7210     4.9160 hc         1 5IG       0.040033
     54 H53         -0.7890     2.1010     3.3480 hc         1 5IG       0.040033
     55 H7          -2.2890    -1.9680     2.1570 ha         1 5IG       0.144000
@<TRIPOS>BOND
     1     1     2 ar
     2     1     6 ar
     3     1     7 1
     4     2     3 ar
     5     3     4 ar
     6     3     8 1
     7     4     5 ar
     8     5     6 ar
     9     5     9 1
    10     6    15 1
    11     7    29 1
    12     7    30 1
    13     8    31 1
    14     8    32 1
    15     9    28 1
    16     9    33 1
    17     9    34 1
    18    10    11 ar
    19    10    15 ar
    20    10    55 1
    21    11    12 ar
    22    11    35 1
    23    12    13 ar
    24    12    16 1
    25    13    14 ar
    26    13    19 1
    27    14    15 ar
    28    14    36 1
    29    16    17 1
    30    17    18 1
    31    17    25 1
    32    17    26 1
    33    18    19 1
    34    18    27 2
    35    19    20 1
    36    20    21 1
    37    20    37 1
    38    20    38 1
    39    21    22 1
    40    21    39 1
    41    21    40 1
    42    22    23 1
    43    22    41 1
    44    22    42 1
    45    23    24 1
    46    24    43 1
    47    24    44 1
    48    24    45 1
    49    25    46 1
    50    25    47 1
    51    25    48 1
    52    26    49 1
    53    26    50 1
    54    26    51 1
    55    28    52 1
    56    28    53 1
    57    28    54 1
@<TRIPOS>SUBSTRUCTURE
     1 5IG         1 TEMP              0 ****  ****    0 ROOT
