@<TRIPOS>MOLECULE
5IM
   25    26     1     0     0
SMALL
bcc


@<TRIPOS>ATOM
      1 C1           0.0000     0.0000     0.0000 cc         1 5IM      -0.166400
      2 C2           1.3390     0.0000     0.0000 cd         1 5IM       0.475200
      3 C3           1.0750     0.0000     2.2170 cc         1 5IM       0.547300
      4 C4           1.6970     1.0150     6.2400 c3         1 5IM      -0.030400
      5 C5           0.7630    -0.1460     5.8890 c3         1 5IM      -0.024400
      6 C6           2.8780     1.0210     5.2670 c3         1 5IM      -0.024400
      7 C7           0.2980     0.0010     4.4380 c3         1 5IM       0.128300
      8 C8           2.3530     1.1350     3.8340 c3         1 5IM       0.128300
      9 N9           1.8860     0.0000     1.2040 nd         1 5IM      -0.612000
     10 N10          1.4650     0.0010     3.5460 nh         1 5IM      -0.408300
     11 N11          2.0990    -0.0000    -1.1800 nv         1 5IM      -0.618500
     12 S12         -0.5470     0.0000     1.6740 ss         1 5IM      -0.336300
     13 H1          -0.6360    -0.0000    -0.8770 h4         1 5IM       0.163000
     14 H111         2.1330     0.8190    -1.7540 hn         1 5IM       0.273300
     15 H112         2.6060    -0.8210    -1.4490 hn         1 5IM       0.273300
     16 H42C         1.1570     1.9500     6.1570 hc         1 5IM       0.015700
     17 H51C        -0.0980    -0.1280     6.5470 hc         1 5IM       0.022950
     18 H52C         1.2930    -1.0840     6.0040 hc         1 5IM       0.022950
     19 H61C         3.4380     0.1000     5.3740 hc         1 5IM       0.022950
     20 H62C         3.5190     1.8670     5.4840 hc         1 5IM       0.022950
     21 H71C        -0.3500    -0.8290     4.1830 h1         1 5IM       0.027450
     22 H72C        -0.2400     0.9340     4.3260 h1         1 5IM       0.027450
     23 H81C         3.1870     1.1220     3.1430 h1         1 5IM       0.027450
     24 H82C         1.8000     2.0600     3.7250 h1         1 5IM       0.027450
     25 H41C         2.0630     0.8900     7.2520 hc         1 5IM       0.015700
@<TRIPOS>BOND
     1     1     2 2   
     2     1    12 1   
     3     1    13 1   
     4     2     9 1   
     5     2    11 1   
     6     3     9 2   
     7     3    10 1   
     8     3    12 1   
     9     4     5 1   
    10     4     6 1   
    11     4    16 1   
    12     4    25 1   
    13     5     7 1   
    14     5    17 1   
    15     5    18 1   
    16     6     8 1   
    17     6    19 1   
    18     6    20 1   
    19     7    10 1   
    20     7    21 1   
    21     7    22 1   
    22     8    10 1   
    23     8    23 1   
    24     8    24 1   
    25    11    14 1   
    26    11    15 1   
@<TRIPOS>SUBSTRUCTURE
     1 5IM         1 TEMP              0 ****  ****    0 ROOT
