@<TRIPOS>MOLECULE
molecule
   74    76     1     0     0
SMALL
bcc


@<TRIPOS>ATOM
      1 C1           0.0000     0.0000     0.0000 c3         1 5IN       0.173700
      2 O2           1.4290     0.0000     0.0000 os         1 5IN      -0.400600
      3 C3           1.8420     0.0000     1.3690 c3         1 5IN       0.110400
      4 C4           3.3700     0.0000     1.4390 c3         1 5IN       0.057700
      5 N5           3.8850     1.2530     0.8790 ns         1 5IN      -0.562900
      6 C6           3.9780     2.3500     1.6560 c          1 5IN       0.677100
      7 C7           4.5060     3.6390     1.0810 c3         1 5IN       0.175500
      8 N8           4.5070     4.6730     2.1180 n7         1 5IN      -0.894100
      9 S9           5.7080     5.8120     2.1510 s6         1 5IN       1.328900
     10 C10          5.4450     6.7340     0.6100 c3         1 5IN      -0.171300
     11 C11          6.4790     7.8240     0.4950 ca         1 5IN      -0.100300
     12 C12          7.6830     7.5710    -0.1340 ca         1 5IN      -0.110000
     13 C13          8.6320     8.5710    -0.2400 ca         1 5IN      -0.121500
     14 C14          8.3750     9.8250     0.2820 ca         1 5IN      -0.113000
     15 C15          7.1710    10.0790     0.9100 ca         1 5IN      -0.121500
     16 C16          6.2200     9.0800     1.0130 ca         1 5IN      -0.110000
     17 O17          5.3730     6.5910     3.2900 o          1 5IN      -0.616300
     18 O18          6.8900     5.0250     2.0940 o          1 5IN      -0.616300
     19 C19          3.6150     4.0820    -0.0800 c3         1 5IN       0.115400
     20 O20          2.2600     4.1710     0.3650 oh         1 5IN      -0.599800
     21 O21          3.6350     2.3010     2.8180 o          1 5IN      -0.602100
     22 C22          3.9100    -1.1630     0.6480 c          1 5IN       0.665100
     23 O23          4.6520    -0.9650    -0.2920 o          1 5IN      -0.589100
     24 N24          3.5700    -2.4230     0.9830 ns         1 5IN      -0.590900
     25 C25          4.0940    -3.5530     0.2130 c3         1 5IN       0.152300
     26 C26          3.5650    -4.8420     0.7890 ca         1 5IN      -0.051300
     27 C27          2.3770    -5.3700     0.3170 ca         1 5IN      -0.101000
     28 C28          1.8870    -6.5500     0.8400 ca         1 5IN      -0.086500
     29 C29          2.5930    -7.2090     1.8460 ca         1 5IN      -0.194900
     30 C30          3.7870    -6.6680     2.3220 ca         1 5IN      -0.086500
     31 C31          4.2700    -5.4910     1.7870 ca         1 5IN      -0.101000
     32 C32          2.0730    -8.4760     2.4110 ce         1 5IN       0.542800
     33 N33          0.9550    -8.9760     1.9680 n2         1 5IN      -0.680100
     34 N34          2.7730    -9.1250     3.4040 nz         1 5IN      -0.801600
     35 C35         -0.5020     0.0010    -1.4210 ca         1 5IN      -0.093300
     36 C36         -0.7330    -1.1960    -2.0730 ca         1 5IN      -0.108000
     37 C37         -1.1940    -1.1950    -3.3760 ca         1 5IN      -0.128500
     38 C38         -1.4250     0.0020    -4.0270 ca         1 5IN      -0.115000
     39 C39         -1.1960     1.1990    -3.3740 ca         1 5IN      -0.128500
     40 C40         -0.7390     1.1980    -2.0690 ca         1 5IN      -0.108000
     41 H11         -0.3610     0.8840     0.5110 h1         1 5IN       0.033700
     42 H12A        -0.3610    -0.8850     0.5100 h1         1 5IN       0.033700
     43 H31A         1.4580    -0.8850     1.8620 h1         1 5IN       0.043200
     44 H32          1.4580     0.8840     1.8620 h1         1 5IN       0.043200
     45 H4           3.6840    -0.0890     2.4720 h1         1 5IN       0.099700
     46 HN5          4.2110     1.2810    -0.0670 hn         1 5IN       0.343500
     47 H7           5.5170     3.4860     0.7230 h1         1 5IN       0.095700
     48 HN8          3.7930     4.6780     2.8200 hn         1 5IN       0.481800
     49 H101         4.4550     7.1740     0.6170 h1         1 5IN       0.099200
     50 H102         5.5350     6.0600    -0.2330 h1         1 5IN       0.099200
     51 H12          7.8840     6.5880    -0.5440 ha         1 5IN       0.137000
     52 H13          9.5760     8.3720    -0.7330 ha         1 5IN       0.138000
     53 H14          9.1190    10.6080     0.2010 ha         1 5IN       0.136000
     54 H15          6.9690    11.0620     1.3180 ha         1 5IN       0.138000
     55 H16          5.2760     9.2790     1.5050 ha         1 5IN       0.137000
     56 H191         3.6840     3.3600    -0.8850 h1         1 5IN       0.034700
     57 H192         3.9420     5.0520    -0.4370 h1         1 5IN       0.034700
     58 H20          1.7850     4.7660    -0.1910 ho         1 5IN       0.409000
     59 H24          2.9840    -2.5880     1.7780 hn         1 5IN       0.315500
     60 H251         5.1760    -3.5530     0.2630 h1         1 5IN       0.075700
     61 H252         3.7800    -3.4630    -0.8200 h1         1 5IN       0.075700
     62 H27          1.8300    -4.8570    -0.4640 ha         1 5IN       0.168000
     63 H28          0.9580    -6.9640     0.4680 ha         1 5IN       0.140000
     64 H30          4.3400    -7.1760     3.1030 ha         1 5IN       0.140000
     65 H31          5.1980    -5.0700     2.1560 ha         1 5IN       0.168000
     66 H33          0.6030    -9.8310     2.3500 hn         1 5IN       0.434400
     67 H341         2.8540    -8.5250     4.2020 hn         1 5IN       0.465800
     68 H342         2.2870    -9.9600     3.6640 hn         1 5IN       0.465800
     69 H36         -0.5520    -2.1350    -1.5630 ha         1 5IN       0.127500
     70 H37         -1.3740    -2.1330    -3.8870 ha         1 5IN       0.132500
     71 H38         -1.7850     0.0030    -5.0480 ha         1 5IN       0.135000
     72 H39         -1.3790     2.1370    -3.8830 ha         1 5IN       0.132500
     73 H40         -0.5590     2.1360    -1.5580 ha         1 5IN       0.127500
     74 H343         3.6880    -9.3570     3.0720 hn         1 5IN       0.465800
@<TRIPOS>BOND
     1     1     2 1
     2     1    35 1
     3     1    41 1
     4     1    42 1
     5     2     3 1
     6     3     4 1
     7     3    43 1
     8     3    44 1
     9     4     5 1
    10     4    22 1
    11     4    45 1
    12     5     6 1
    13     5    46 1
    14     6     7 1
    15     6    21 2
    16     7     8 1
    17     7    19 1
    18     7    47 1
    19     8     9 1
    20     8    48 1
    21     9    10 1
    22     9    17 2
    23     9    18 2
    24    10    11 1
    25    10    49 1
    26    10    50 1
    27    11    12 ar
    28    11    16 ar
    29    12    13 ar
    30    12    51 1
    31    13    14 ar
    32    13    52 1
    33    14    15 ar
    34    14    53 1
    35    15    16 ar
    36    15    54 1
    37    16    55 1
    38    19    20 1
    39    19    56 1
    40    19    57 1
    41    20    58 1
    42    22    23 2
    43    22    24 1
    44    24    25 1
    45    24    59 1
    46    25    26 1
    47    25    60 1
    48    25    61 1
    49    26    27 ar
    50    26    31 ar
    51    27    28 ar
    52    27    62 1
    53    28    29 ar
    54    28    63 1
    55    29    30 ar
    56    29    32 1
    57    30    31 ar
    58    30    64 1
    59    31    65 1
    60    32    33 2
    61    32    34 1
    62    33    66 1
    63    34    67 1
    64    34    68 1
    65    35    36 ar
    66    35    40 ar
    67    36    37 ar
    68    36    69 1
    69    37    38 ar
    70    37    70 1
    71    38    39 ar
    72    38    71 1
    73    39    40 ar
    74    39    72 1
    75    40    73 1
    76    74    34 1
@<TRIPOS>SUBSTRUCTURE
     1 5IN         1 TEMP              0 ****  ****    0 ROOT
