@<TRIPOS>MOLECULE
5IO
   57    59     1     0     0
SMALL
bcc


@<TRIPOS>ATOM
      1 CAA          0.0000     0.0000     0.0000 c3         1 5IO       0.010900
      2 CAB          5.2100    -1.4380    -2.7930 c3         1 5IO       0.014900
      3 OAD          9.6150     0.0030     0.1240 o          1 5IO      -0.666500
      4 OAE          7.4270     0.5480     6.5040 o          1 5IO      -0.585300
      5 OAF          5.1940     0.5430     7.6260 o          1 5IO      -0.585300
      6 IAG          8.7520     0.0010    -2.9440 i          1 5IO      -0.177800
      7 CAH          3.9600     0.0020     5.0460 ca         1 5IO       0.061000
      8 CAI          3.3330     0.0010     3.8160 ca         1 5IO      -0.248000
      9 CAJ          6.1060     0.0020     3.9790 ca         1 5IO       0.048000
     10 CAK          1.5290     0.0000     0.0000 c3         1 5IO      -0.031400
     11 CAL          5.5750    -0.0010    -2.4170 c3         1 5IO       0.010800
     12 CAM          2.0390     0.0000     1.4420 c3         1 5IO       0.192400
     13 CAN          7.1880    -3.6200     6.1090 c3         1 5IO       0.132800
     14 CAO          5.0180    -3.6200     7.1900 c3         1 5IO       0.132800
     15 CAP          7.5780    -2.2990     6.7800 c3         1 5IO       0.241800
     16 CAQ          5.3200    -2.2990     7.9070 c3         1 5IO       0.241800
     17 NAR          5.6800     0.0000     0.0400 nc         1 5IO      -0.523300
     18 NAS          7.6810     0.0020     1.2440 ns         1 5IO       0.028600
     19 OAT          3.4680     0.0000     1.4420 os         1 5IO      -0.259900
     20 CAU          5.3430     0.0020     5.1270 ca         1 5IO      -0.205500
     21 CAV          4.0840     0.0010     2.6510 ca         1 5IO       0.227100
     22 CAW          6.3380     0.0010    -1.1180 cc         1 5IO       0.173400
     23 CAX          7.7030     0.0020    -1.1290 cd         1 5IO      -0.044400
     24 CAY          5.4840     0.0010     2.7280 ca         1 5IO      -0.194900
     25 CAZ          6.3190     0.0000     1.1930 cd         1 5IO       0.355500
     26 CBA          8.3950     0.0030     0.0980 c          1 5IO       0.597700
     27 NBB          6.2700    -4.3590     6.9860 n3         1 5IO      -0.537600
     28 NBC          6.3490    -1.5780     7.1430 n3         1 5IO      -0.534500
     29 HAA         -0.3610     0.8790     0.5200 hc         1 5IO       0.003367
     30 HAAA        -0.3610     0.0100    -1.0210 hc         1 5IO       0.003367
     31 HAAB        -0.3610    -0.8900     0.5020 hc         1 5IO       0.003367
     32 HAB          5.7590    -2.1270    -2.1620 hc         1 5IO       0.005033
     33 HABA         5.4650    -1.6160    -3.8300 hc         1 5IO       0.005033
     34 HABB         4.1460    -1.5890    -2.6510 hc         1 5IO       0.005033
     35 HAC          5.3720    -6.2450     7.1500 h1         1 5IO       0.001033
     36 HACA         5.5130    -5.6260     5.4990 h1         1 5IO       0.001033
     37 HACB         6.9450    -6.2350     6.3400 h1         1 5IO       0.001033
     38 HAH          3.3680     0.0020     5.9530 ha         1 5IO       0.123000
     39 HAI          2.2510     0.0000     3.7610 ha         1 5IO       0.132000
     40 HAJ          7.1880     0.0020     4.0470 ha         1 5IO       0.121000
     41 HAK          1.8900    -0.8850    -0.5110 hc         1 5IO       0.026200
     42 HAKA         1.8900     0.8840    -0.5110 hc         1 5IO       0.026200
     43 HAL          4.6710     0.5840    -2.3050 hc         1 5IO       0.033700
     44 HALA         6.1900     0.4310    -3.1970 hc         1 5IO       0.033700
     45 HAM          1.6780     0.8840     1.9530 h1         1 5IO       0.003200
     46 HAMA         1.6780    -0.8840     1.9530 h1         1 5IO       0.003200
     47 HAN          8.0780    -4.2130     5.9360 h1         1 5IO       0.011700
     48 HANA         6.6970    -3.4130     5.1650 h1         1 5IO       0.011700
     49 HAO          4.5600    -3.4130     6.2300 h1         1 5IO       0.011700
     50 HAOA         4.3440    -4.2130     7.7980 h1         1 5IO       0.011700
     51 HAP          8.1610    -1.6990     6.0920 h1         1 5IO       0.028950
     52 HAPA         8.1570    -2.5020     7.6740 h1         1 5IO       0.028950
     53 HAQ          5.6860    -2.5030     8.9060 h1         1 5IO       0.028950
     54 HAQA         4.4190    -1.6990     7.9580 h1         1 5IO       0.028950
     55 HNAS         8.1510     0.0020     2.1280 hn         1 5IO       0.188500
     56 SBD          6.1300     0.0040     6.7030 sy         1 5IO       1.059200
     57 CAC          6.0080    -5.7050     6.4590 c3         1 5IO       0.188100
@<TRIPOS>BOND
     1     1    10 1   
     2     1    29 1   
     3     1    30 1   
     4     1    31 1   
     5     2    11 1   
     6     2    32 1   
     7     2    33 1   
     8     2    34 1   
     9     3    26 2   
    10     4    56 2   
    11     5    56 2   
    12     6    23 1   
    13     7     8 ar  
    14     7    20 ar  
    15     7    38 1   
    16     8    21 ar  
    17     8    39 1   
    18     9    20 ar  
    19     9    24 ar  
    20     9    40 1   
    21    10    12 1   
    22    10    41 1   
    23    10    42 1   
    24    11    22 1   
    25    11    43 1   
    26    11    44 1   
    27    12    19 1   
    28    12    45 1   
    29    12    46 1   
    30    13    15 1   
    31    13    27 1   
    32    13    47 1   
    33    13    48 1   
    34    14    16 1   
    35    14    27 1   
    36    14    49 1   
    37    14    50 1   
    38    15    28 1   
    39    15    51 1   
    40    15    52 1   
    41    16    28 1   
    42    16    53 1   
    43    16    54 1   
    44    17    22 1   
    45    17    25 2   
    46    18    25 1   
    47    18    26 1   
    48    18    55 1   
    49    19    21 1   
    50    20    56 1   
    51    21    24 ar  
    52    22    23 2   
    53    23    26 1   
    54    24    25 1   
    55    27    57 1   
    56    28    56 1   
    57    35    57 1   
    58    36    57 1   
    59    37    57 1   
@<TRIPOS>SUBSTRUCTURE
     1 5IO         1 TEMP              0 ****  ****    0 ROOT
