@<TRIPOS>MOLECULE
molecule
   57    59     1     0     0
SMALL
bcc


@<TRIPOS>ATOM
      1 CAA          0.0000     0.0000     0.0000 c3         1 5IO      -0.092100
      2 CAB          5.2100    -1.4380    -2.7930 c3         1 5IO      -0.082100
      3 OAD          9.6150     0.0030     0.1240 o          1 5IO      -0.624500
      4 OAE          7.4270     0.5480     6.5040 o          1 5IO      -0.632300
      5 OAF          5.1940     0.5430     7.6260 o          1 5IO      -0.632300
      6 IAG          8.7520     0.0010    -2.9440 i          1 5IO      -0.106800
      7 CAH          3.9600     0.0020     5.0460 ca         1 5IO       0.022000
      8 CAI          3.3330     0.0010     3.8160 ca         1 5IO      -0.249000
      9 CAJ          6.1060     0.0020     3.9790 ca         1 5IO       0.021000
     10 CAK          1.5290     0.0000     0.0000 c3         1 5IO      -0.080400
     11 CAL          5.5750    -0.0010    -2.4170 c3         1 5IO      -0.047200
     12 CAM          2.0390     0.0000     1.4420 c3         1 5IO       0.128400
     13 CAN          7.1880    -3.6200     6.1090 c3         1 5IO       0.144800
     14 CAO          5.0180    -3.6200     7.1900 c3         1 5IO       0.144800
     15 CAP          7.5780    -2.2990     6.7800 c3         1 5IO       0.241300
     16 CAQ          5.3200    -2.2990     7.9070 c3         1 5IO       0.241300
     17 NAR          5.6800     0.0000     0.0400 nc         1 5IO      -0.643300
     18 NAS          7.6810     0.0020     1.2440 ns         1 5IO      -0.442400
     19 OAT          3.4680     0.0000     1.4420 os         1 5IO      -0.278900
     20 CAU          5.3430     0.0020     5.1270 ca         1 5IO      -0.354500
     21 CAV          4.0840     0.0010     2.6510 ca         1 5IO       0.224100
     22 CAW          6.3380     0.0010    -1.1180 cc         1 5IO       0.246400
     23 CAX          7.7030     0.0020    -1.1290 cd         1 5IO      -0.172400
     24 CAY          5.4840     0.0010     2.7280 ca         1 5IO      -0.172900
     25 CAZ          6.3190     0.0000     1.1930 cd         1 5IO       0.563500
     26 CBA          8.3950     0.0030     0.0980 c          1 5IO       0.697700
     27 NBB          6.2700    -4.3590     6.9860 n3         1 5IO      -0.726600
     28 NBC          6.3490    -1.5780     7.1430 n3         1 5IO      -0.819500
     29 HAA         -0.3610     0.8790     0.5200 hc         1 5IO       0.039033
     30 HAAA        -0.3610     0.0100    -1.0210 hc         1 5IO       0.039033
     31 HAAB        -0.3610    -0.8900     0.5020 hc         1 5IO       0.039033
     32 HAB          5.7590    -2.1270    -2.1620 hc         1 5IO       0.041700
     33 HABA         5.4650    -1.6160    -3.8300 hc         1 5IO       0.041700
     34 HABB         4.1460    -1.5890    -2.6510 hc         1 5IO       0.041700
     35 HAC          5.3720    -6.2450     7.1500 h1         1 5IO       0.034700
     36 HACA         5.5130    -5.6260     5.4990 h1         1 5IO       0.034700
     37 HACB         6.9450    -6.2350     6.3400 h1         1 5IO       0.034700
     38 HAH          3.3680     0.0020     5.9530 ha         1 5IO       0.156000
     39 HAI          2.2510     0.0000     3.7610 ha         1 5IO       0.151000
     40 HAJ          7.1880     0.0020     4.0470 ha         1 5IO       0.153000
     41 HAK          1.8900    -0.8850    -0.5110 hc         1 5IO       0.059700
     42 HAKA         1.8900     0.8840    -0.5110 hc         1 5IO       0.059700
     43 HAL          4.6710     0.5840    -2.3050 hc         1 5IO       0.069700
     44 HALA         6.1900     0.4310    -3.1970 hc         1 5IO       0.069700
     45 HAM          1.6780     0.8840     1.9530 h1         1 5IO       0.038200
     46 HAMA         1.6780    -0.8840     1.9530 h1         1 5IO       0.038200
     47 HAN          8.0780    -4.2130     5.9360 h1         1 5IO       0.039700
     48 HANA         6.6970    -3.4130     5.1650 h1         1 5IO       0.039700
     49 HAO          4.5600    -3.4130     6.2300 h1         1 5IO       0.039700
     50 HAOA         4.3440    -4.2130     7.7980 h1         1 5IO       0.039700
     51 HAP          8.1610    -1.6990     6.0920 h1         1 5IO       0.064700
     52 HAPA         8.1570    -2.5020     7.6740 h1         1 5IO       0.064700
     53 HAQ          5.6860    -2.5030     8.9060 h1         1 5IO       0.064700
     54 HAQA         4.4190    -1.6990     7.9580 h1         1 5IO       0.064700
     55 HNAS         8.1510     0.0020     2.1280 hn         1 5IO       0.341500
     56 SBD          6.1300     0.0040     6.7030 sy         1 5IO       1.428200
     57 CAC          6.0080    -5.7050     6.4590 c3         1 5IO       0.153100
@<TRIPOS>BOND
     1     1    10 1
     2     2    11 1
     3    57    27 1
     4     3    26 2
     5     4    56 2
     6     5    56 2
     7     6    23 1
     8     7     8 ar
     9     7    20 ar
    10     8    21 ar
    11     9    20 ar
    12     9    24 ar
    13    10    12 1
    14    11    22 1
    15    12    19 1
    16    13    15 1
    17    13    27 1
    18    14    16 1
    19    14    27 1
    20    15    28 1
    21    16    28 1
    22    17    22 1
    23    17    25 2
    24    18    25 1
    25    18    26 1
    26    19    21 1
    27    20    56 1
    28    21    24 ar
    29    22    23 2
    30    23    26 1
    31    24    25 1
    32    28    56 1
    33     1    29 1
    34     1    30 1
    35     1    31 1
    36     2    32 1
    37     2    33 1
    38     2    34 1
    39    57    35 1
    40    57    36 1
    41    57    37 1
    42     7    38 1
    43     8    39 1
    44     9    40 1
    45    10    41 1
    46    10    42 1
    47    11    43 1
    48    11    44 1
    49    12    45 1
    50    12    46 1
    51    13    47 1
    52    13    48 1
    53    14    49 1
    54    14    50 1
    55    15    51 1
    56    15    52 1
    57    16    53 1
    58    16    54 1
    59    18    55 1
@<TRIPOS>SUBSTRUCTURE
     1 5IO         1 TEMP              0 ****  ****    0 ROOT
