@<TRIPOS>MOLECULE
5IQ
   19    20     1     0     0
SMALL
bcc


@<TRIPOS>ATOM
      1 CAB          0.0000     0.0000     0.0000 ca         1 5IQ      -0.026000
      2 CAF          1.4050     0.0000     0.0000 ca         1 5IQ      -0.201300
      3 CAK          2.0590     0.0000     1.1950 ca         1 5IQ       0.393200
      4 NAH          1.4070     0.0040     2.3500 nb         1 5IQ      -0.586000
      5 CAD          0.0960     0.0070     2.4250 ca         1 5IQ       0.424200
      6 CAA         -0.6720     0.0090     1.2500 ca         1 5IQ      -0.157300
      7 CAC         -2.0750     0.0140     1.2790 ca         1 5IQ      -0.074000
      8 CAG         -2.7780     0.0150     0.1120 ca         1 5IQ      -0.098000
      9 CAI         -2.1280     0.0110    -1.1190 ca         1 5IQ      -0.101000
     10 CAE         -0.7500     0.0070    -1.1910 ca         1 5IQ       0.037600
     11 NAJ         -0.1090     0.0040    -2.4280 nv         1 5IQ      -0.554200
     12 HAF          1.9570    -0.0030    -0.9320 ha         1 5IQ       0.119000
     13 HAK          3.1420    -0.0030     1.2030 h4         1 5IQ      -0.022900
     14 HAD         -0.3920     0.0100     3.3930 h4         1 5IQ      -0.018900
     15 HAC         -2.5990     0.0170     2.2270 ha         1 5IQ       0.107000
     16 HAG         -3.8600     0.0180     0.1420 ha         1 5IQ       0.103000
     17 HAI         -2.7120     0.0120    -2.0320 ha         1 5IQ       0.108000
     18 HAJ1         0.1010    -0.8640    -2.8800 hn         1 5IQ       0.274800
     19 HAJ2         0.1070     0.8690    -2.8820 hn         1 5IQ       0.274800
@<TRIPOS>BOND
     1     1     2 ar  
     2     1     6 ar  
     3     1    10 ar  
     4     2     3 ar  
     5     2    12 1   
     6     3     4 ar  
     7     3    13 1   
     8     4     5 ar  
     9     5     6 ar  
    10     5    14 1   
    11     6     7 ar  
    12     7     8 ar  
    13     7    15 1   
    14     8     9 ar  
    15     8    16 1   
    16     9    10 ar  
    17     9    17 1   
    18    10    11 1   
    19    11    18 1   
    20    11    19 1   
@<TRIPOS>SUBSTRUCTURE
     1 5IQ         1 TEMP              0 ****  ****    0 ROOT
