@<TRIPOS>MOLECULE
molecule
   48    51     1     0     0
SMALL
bcc


@<TRIPOS>ATOM
      1 C01          0.0000     0.0000     0.0000 c3         1 5J0      -0.065400
      2 C02          1.5210     0.0000     0.0000 c3         1 5J0      -0.089400
      3 C03          2.1280     0.0000     1.3960 c3         1 5J0      -0.065400
      4 C04          1.5390    -1.0870     2.2930 c3         1 5J0      -0.031000
      5 C05          1.8720    -2.4850     1.7790 c3         1 5J0      -0.065400
      6 C06          1.2300    -2.7870     0.4330 c3         1 5J0      -0.089400
      7 C07         -0.2600    -2.4840     0.3900 c3         1 5J0      -0.065400
      8 C08         -0.5920    -1.0820     0.8990 c3         1 5J0      -0.031000
      9 C09          0.0280    -0.9320     2.2800 c2         1 5J0      -0.076400
     10 C10         -0.6910    -0.6850     3.3790 ce         1 5J0      -0.041400
     11 C11         -2.1640    -0.5480     3.2850 ca         1 5J0      -0.020800
     12 C12         -0.0140    -0.5510     4.6900 ca         1 5J0      -0.045800
     13 C13          0.6480    -1.6410     5.2510 ca         1 5J0      -0.105500
     14 C14          1.2810    -1.5110     6.4690 ca         1 5J0      -0.153000
     15 C15          1.2590    -0.2940     7.1380 ca         1 5J0       0.102100
     16 C16          0.5990     0.7940     6.5830 ca         1 5J0      -0.153000
     17 C17         -0.0350     0.6710     5.3640 ca         1 5J0      -0.105500
     18 C18         -2.7700     0.6750     3.5700 ca         1 5J0      -0.138000
     19 C19         -4.1470     0.7970     3.4820 ca         1 5J0       0.106100
     20 C20         -4.9190    -0.2960     3.1090 ca         1 5J0      -0.165000
     21 C21         -4.3180    -1.5080     2.8270 ca         1 5J0      -0.114000
     22 C22         -2.9460    -1.6370     2.9070 ca         1 5J0      -0.130000
     23 O01          1.8830    -0.1680     8.3380 oh         1 5J0      -0.522100
     24 O02         -4.7430     1.9870     3.7590 oh         1 5J0      -0.520100
     25 H1          -0.3480     0.9670     0.3440 hc         1 5J0       0.040825
     26 H2          -0.3480    -0.1620    -1.0130 hc         1 5J0       0.040825
     27 H3           1.8660     0.8820    -0.5260 hc         1 5J0       0.045950
     28 H4           1.8670    -0.8820    -0.5260 hc         1 5J0       0.045950
     29 H5           1.9470     0.9650     1.8540 hc         1 5J0       0.040825
     30 H6           3.1960    -0.1590     1.3120 hc         1 5J0       0.040825
     31 H7           1.9110    -0.9700     3.3040 hc         1 5J0       0.066200
     32 H8           2.9470    -2.5720     1.6790 hc         1 5J0       0.040825
     33 H9           1.5230    -3.2140     2.5010 hc         1 5J0       0.040825
     34 H10          1.3750    -3.8370     0.2090 hc         1 5J0       0.045950
     35 H11          1.7250    -2.1940    -0.3260 hc         1 5J0       0.045950
     36 H12         -0.6040    -2.5730    -0.6330 hc         1 5J0       0.040825
     37 H13         -0.7810    -3.2090     1.0040 hc         1 5J0       0.040825
     38 H14         -1.6660    -0.9600     0.9640 hc         1 5J0       0.066200
     39 H15          0.6660    -2.5910     4.7290 ha         1 5J0       0.137500
     40 H16          1.7960    -2.3580     6.9050 ha         1 5J0       0.140500
     41 H17          0.5840     1.7420     7.1070 ha         1 5J0       0.140500
     42 H18         -0.5490     1.5200     4.9320 ha         1 5J0       0.137500
     43 H19         -2.1670     1.5260     3.8610 ha         1 5J0       0.144000
     44 H20         -5.9960    -0.1990     3.0420 ha         1 5J0       0.137000
     45 H21         -4.9250    -2.3570     2.5340 ha         1 5J0       0.133000
     46 H22         -2.4780    -2.5890     2.6850 ha         1 5J0       0.136000
     47 H23          2.7740     0.1090     8.2020 ho         1 5J0       0.417000
     48 H24         -5.0000     2.4050     2.9530 ho         1 5J0       0.418000
@<TRIPOS>BOND
     1    23    15 1
     2    14    15 ar
     3    14    13 ar
     4    15    16 ar
     5    13    12 ar
     6    16    17 ar
     7    12    17 ar
     8    12    10 1
     9    24    19 1
    10    18    19 ar
    11    18    11 ar
    12    19    20 ar
    13    10    11 1
    14    10     9 2
    15    11    22 ar
    16    20    21 ar
    17    22    21 ar
    18     9     4 1
    19     9     8 1
    20     4     5 1
    21     4     3 1
    22     5     6 1
    23     6     7 1
    24     8     7 1
    25     8     1 1
    26     3     2 1
    27     1     2 1
    28     1    25 1
    29     1    26 1
    30     2    27 1
    31     2    28 1
    32     3    29 1
    33     3    30 1
    34     4    31 1
    35     5    32 1
    36     5    33 1
    37     6    34 1
    38     6    35 1
    39     7    36 1
    40     7    37 1
    41     8    38 1
    42    13    39 1
    43    14    40 1
    44    16    41 1
    45    17    42 1
    46    18    43 1
    47    20    44 1
    48    21    45 1
    49    22    46 1
    50    23    47 1
    51    24    48 1
@<TRIPOS>SUBSTRUCTURE
     1 5J0         1 TEMP              0 ****  ****    0 ROOT
