@<TRIPOS>MOLECULE
molecule
   50    53     1     0     0
SMALL
bcc


@<TRIPOS>ATOM
      1 C01          0.0000     0.0000     0.0000 c3         1 5J1      -0.068400
      2 C02          1.5230     0.0000     0.0000 c3         1 5J1      -0.088400
      3 C03          2.0980     0.0000     1.4100 c3         1 5J1      -0.068400
      4 C04          1.4700    -1.0640     2.2980 c3         1 5J1      -0.061200
      5 C05          1.8170    -2.4760     1.8340 c3         1 5J1      -0.068400
      6 C06          1.2010    -2.8050     0.4790 c3         1 5J1      -0.088400
      7 C07         -0.2860    -2.4750     0.4200 c3         1 5J1      -0.068400
      8 C08         -0.5840    -1.0640     0.9170 c3         1 5J1      -0.061200
      9 C09         -0.0510    -0.9100     2.3420 c3         1 5J1      -0.049700
     10 C10         -0.4460     0.4400     2.9290 c3         1 5J1       0.023900
     11 C11         -1.9480     0.5550     2.9570 ca         1 5J1      -0.077800
     12 C12          0.0920     0.5540     4.3320 ca         1 5J1      -0.077800
     13 C13          0.8390     1.6580     4.6980 ca         1 5J1      -0.112500
     14 C14          1.3280     1.7680     5.9850 ca         1 5J1      -0.149500
     15 C15          1.0710     0.7670     6.9110 ca         1 5J1       0.100600
     16 C16          0.3220    -0.3400     6.5420 ca         1 5J1      -0.149500
     17 C17         -0.1650    -0.4450     5.2530 ca         1 5J1      -0.112500
     18 C18         -2.5650     1.6580     2.3990 ca         1 5J1      -0.112500
     19 C19         -3.9430     1.7670     2.4230 ca         1 5J1      -0.149500
     20 C20         -4.7060     0.7670     3.0070 ca         1 5J1       0.100600
     21 C21         -4.0830    -0.3400     3.5670 ca         1 5J1      -0.149500
     22 C22         -2.7070    -0.4460     3.5360 ca         1 5J1      -0.112500
     23 O01         -6.0600     0.8710     3.0320 oh         1 5J1      -0.522600
     24 O02          1.5520     0.8720     8.1780 oh         1 5J1      -0.522600
     25 H1          -0.3490     0.9720     0.3270 hc         1 5J1       0.038950
     26 H2          -0.3490    -0.1810    -1.0100 hc         1 5J1       0.038950
     27 H3           1.8730    -0.8830    -0.5210 hc         1 5J1       0.044200
     28 H4           1.8730     0.8830    -0.5210 hc         1 5J1       0.044200
     29 H5           1.9260     0.9720     1.8570 hc         1 5J1       0.038950
     30 H6           3.1640    -0.1800     1.3520 hc         1 5J1       0.038950
     31 H7           1.8530    -0.9350     3.3030 hc         1 5J1       0.053200
     32 H8           2.8940    -2.5640     1.7590 hc         1 5J1       0.038950
     33 H9           1.4500    -3.1850     2.5660 hc         1 5J1       0.038950
     34 H10          1.7160    -2.2370    -0.2860 hc         1 5J1       0.044200
     35 H11          1.3320    -3.8630     0.2850 hc         1 5J1       0.044200
     36 H12         -0.6230    -2.5640    -0.6050 hc         1 5J1       0.038950
     37 H13         -0.8260    -3.1840     1.0360 hc         1 5J1       0.038950
     38 H14         -1.6590    -0.9350     0.9420 hc         1 5J1       0.053200
     39 H15         -0.4660    -1.6970     2.9600 hc         1 5J1       0.051700
     40 H16         -0.0340     1.2340     2.3190 hc         1 5J1       0.068700
     41 H17          1.0390     2.4390     3.9740 ha         1 5J1       0.134000
     42 H18          1.9130     2.6340     6.2710 ha         1 5J1       0.139750
     43 H19          0.1210    -1.1230     7.2630 ha         1 5J1       0.139750
     44 H20         -0.7490    -1.3100     4.9640 ha         1 5J1       0.134000
     45 H21         -1.9690     2.4390     1.9430 ha         1 5J1       0.134000
     46 H22         -4.4260     2.6320     1.9860 ha         1 5J1       0.139750
     47 H23         -4.6770    -1.1230     4.0220 ha         1 5J1       0.139750
     48 H24         -2.2210    -1.3100     3.9720 ha         1 5J1       0.134000
     49 H25         -6.4200     0.4740     2.2560 ho         1 5J1       0.418500
     50 H26          0.9200     1.3160     8.7180 ho         1 5J1       0.418500
@<TRIPOS>BOND
     1    24    15 1
     2    14    15 ar
     3    14    13 ar
     4    15    16 ar
     5    13    12 ar
     6    16    17 ar
     7    12    17 ar
     8    12    10 1
     9    22    21 ar
    10    22    11 ar
    11    21    20 ar
    12    10    11 1
    13    10     9 1
    14    11    18 ar
    15    20    23 1
    16    20    19 ar
    17    18    19 ar
    18     9     4 1
    19     9     8 1
    20     4     5 1
    21     4     3 1
    22     5     6 1
    23     8     7 1
    24     8     1 1
    25     6     7 1
    26     3     2 1
    27     1     2 1
    28     1    25 1
    29     1    26 1
    30     2    27 1
    31     2    28 1
    32     3    29 1
    33     3    30 1
    34     4    31 1
    35     5    32 1
    36     5    33 1
    37     6    34 1
    38     6    35 1
    39     7    36 1
    40     7    37 1
    41     8    38 1
    42     9    39 1
    43    10    40 1
    44    13    41 1
    45    14    42 1
    46    16    43 1
    47    17    44 1
    48    18    45 1
    49    19    46 1
    50    21    47 1
    51    22    48 1
    52    23    49 1
    53    24    50 1
@<TRIPOS>SUBSTRUCTURE
     1 5J1         1 TEMP              0 ****  ****    0 ROOT
