@<TRIPOS>MOLECULE
molecule
   38    40     1     0     0
SMALL
bcc


@<TRIPOS>ATOM
      1 O01          0.0000     0.0000     0.0000 oh         1 5J2      -0.519100
      2 C02          1.3570     0.0000     0.0000 ca         1 5J2       0.122100
      3 C03          2.0510     0.0000     1.2030 ca         1 5J2      -0.160500
      4 C04          3.4280    -0.0000     1.2070 ca         1 5J2      -0.091000
      5 C05          4.1280    -0.0010    -0.0020 ca         1 5J2      -0.200900
      6 C06          5.6060    -0.0010    -0.0020 ce         1 5J2       0.548500
      7 C07          6.3430    -0.8910    -0.9190 ca         1 5J2      -0.178900
      8 C08          5.6520    -1.8240    -1.6980 ca         1 5J2      -0.067000
      9 C09          6.3430    -2.6520    -2.5530 ca         1 5J2      -0.195000
     10 C10          7.7280    -2.5660    -2.6450 ca         1 5J2       0.158100
     11 O11          8.4030    -3.3870    -3.4900 oh         1 5J2      -0.522100
     12 C12          8.4240    -1.6440    -1.8760 ca         1 5J2      -0.248000
     13 C13          7.7390    -0.8020    -1.0170 ca         1 5J2       0.187100
     14 O14          8.4170     0.1050    -0.2690 oh         1 5J2      -0.459100
     15 N15          6.2640     0.7920     0.8140 nf         1 5J2      -0.552100
     16 C16          5.5890     1.7130     1.5630 ca         1 5J2       0.128400
     17 C17          5.7030     1.7050     2.9570 ca         1 5J2      -0.118500
     18 C18          5.0200     2.6370     3.7080 ca         1 5J2      -0.156500
     19 C19          4.2190     3.5820     3.0840 ca         1 5J2       0.113900
     20 F20          3.5520     4.4930     3.8250 f          1 5J2      -0.143900
     21 C21          4.1010     3.5950     1.7030 ca         1 5J2      -0.156500
     22 C22          4.7850     2.6710     0.9400 ca         1 5J2      -0.118500
     23 C23          3.4270    -0.0010    -1.2100 ca         1 5J2      -0.091000
     24 C24          2.0500    -0.0060    -1.2050 ca         1 5J2      -0.160500
     25 H1          -0.3140     0.8580     0.2330 ho         1 5J2       0.424000
     26 H2           1.5080     0.0000     2.1410 ha         1 5J2       0.145000
     27 H3           3.9680    -0.0000     2.1470 ha         1 5J2       0.145500
     28 H4           4.5730    -1.8940    -1.6300 ha         1 5J2       0.153000
     29 H5           5.8060    -3.3740    -3.1560 ha         1 5J2       0.146000
     30 H6           8.5970    -4.1990    -3.0510 ho         1 5J2       0.427000
     31 H7           9.5020    -1.5790    -1.9520 ha         1 5J2       0.148000
     32 H8           9.1610     0.4200    -0.7560 ho         1 5J2       0.418000
     33 H9           6.3290     0.9680     3.4450 ha         1 5J2       0.147000
     34 H10          5.1080     2.6320     4.7870 ha         1 5J2       0.145000
     35 H11          3.4750     4.3370     1.2210 ha         1 5J2       0.145000
     36 H12          4.6910     2.6830    -0.1400 ha         1 5J2       0.147000
     37 H13          3.9660    -0.0030    -2.1490 ha         1 5J2       0.145500
     38 H14          1.5060    -0.0060    -2.1420 ha         1 5J2       0.145000
@<TRIPOS>BOND
     1     1     2 1   
     2     9     8 ar  
     3     9    10 ar  
     4     3     2 ar  
     5     3     4 ar  
     6    11    10 1   
     7     2    24 ar  
     8     8     7 ar  
     9    10    12 ar  
    10     4     5 ar  
    11    24    23 ar  
    12     5    23 ar  
    13     5     6 1   
    14     7     6 1   
    15     7    13 ar  
    16    12    13 ar  
    17     6    15 2   
    18    13    14 1   
    19    15    16 1   
    20    16    17 ar  
    21    16    22 ar  
    22    17    18 ar  
    23    22    21 ar  
    24    18    19 ar  
    25    21    19 ar  
    26    19    20 1   
    27     1    25 1   
    28     3    26 1   
    29     4    27 1   
    30     8    28 1   
    31     9    29 1   
    32    11    30 1   
    33    12    31 1   
    34    14    32 1   
    35    17    33 1   
    36    18    34 1   
    37    21    35 1   
    38    22    36 1   
    39    23    37 1   
    40    24    38 1   
@<TRIPOS>SUBSTRUCTURE
     1 5J2         1 TEMP              0 ****  ****    0 ROOT
