@<TRIPOS>MOLECULE
5J2
   38    40     1     0     0
SMALL
bcc


@<TRIPOS>ATOM
      1 O01          0.0000     0.0000     0.0000 oh         1 5J2      -0.498100
      2 C02          1.3570     0.0000     0.0000 ca         1 5J2       0.141100
      3 C03          2.0510     0.0000     1.2030 ca         1 5J2      -0.143000
      4 C04          3.4280    -0.0000     1.2070 ca         1 5J2      -0.066000
      5 C05          4.1280    -0.0010    -0.0020 ca         1 5J2      -0.196900
      6 C06          5.6060    -0.0010    -0.0020 ce         1 5J2       0.511500
      7 C07          6.3430    -0.8910    -0.9190 ca         1 5J2      -0.201900
      8 C08          5.6520    -1.8240    -1.6980 ca         1 5J2      -0.042000
      9 C09          6.3430    -2.6520    -2.5530 ca         1 5J2      -0.184000
     10 C10          7.7280    -2.5660    -2.6450 ca         1 5J2       0.180100
     11 O11          8.4030    -3.3870    -3.4900 oh         1 5J2      -0.503100
     12 C12          8.4240    -1.6440    -1.8760 ca         1 5J2      -0.244000
     13 C13          7.7390    -0.8020    -1.0170 ca         1 5J2       0.208100
     14 O14          8.4170     0.1050    -0.2690 oh         1 5J2      -0.443100
     15 N15          6.2640     0.7920     0.8140 nf         1 5J2      -0.445100
     16 C16          5.5890     1.7130     1.5630 ca         1 5J2       0.099400
     17 C17          5.7030     1.7050     2.9570 ca         1 5J2      -0.103500
     18 C18          5.0200     2.6370     3.7080 ca         1 5J2      -0.116000
     19 C19          4.2190     3.5820     3.0840 ca         1 5J2       0.079900
     20 F20          3.5520     4.4930     3.8250 f          1 5J2      -0.130900
     21 C21          4.1010     3.5950     1.7030 ca         1 5J2      -0.116000
     22 C22          4.7850     2.6710     0.9400 ca         1 5J2      -0.103500
     23 C23          3.4270    -0.0010    -1.2100 ca         1 5J2      -0.066000
     24 C24          2.0500    -0.0060    -1.2050 ca         1 5J2      -0.143000
     25 H1          -0.3140     0.8600     0.2250 ho         1 5J2       0.406000
     26 H2           1.5080     0.0000     2.1410 ha         1 5J2       0.118000
     27 H3           3.9680    -0.0000     2.1470 ha         1 5J2       0.120500
     28 H4           4.5730    -1.8940    -1.6300 ha         1 5J2       0.125000
     29 H5           5.8060    -3.3740    -3.1560 ha         1 5J2       0.119000
     30 H6           8.5970    -4.1990    -3.0510 ho         1 5J2       0.408000
     31 H7           9.5020    -1.5790    -1.9520 ha         1 5J2       0.125000
     32 H8           9.1600     0.4210    -0.7560 ho         1 5J2       0.396000
     33 H9           6.3290     0.9680     3.4450 ha         1 5J2       0.119000
     34 H10          5.1080     2.6320     4.7870 ha         1 5J2       0.117500
     35 H11          3.4750     4.3370     1.2210 ha         1 5J2       0.117500
     36 H12          4.6910     2.6830    -0.1400 ha         1 5J2       0.119000
     37 H13          3.9660    -0.0030    -2.1490 ha         1 5J2       0.120500
     38 H14          1.5060    -0.0060    -2.1420 ha         1 5J2       0.118000
@<TRIPOS>BOND
     1     1     2 1   
     2     1    25 1   
     3     2     3 ar  
     4     2    24 ar  
     5     3     4 ar  
     6     3    26 1   
     7     4     5 ar  
     8     4    27 1   
     9     5     6 1   
    10     5    23 ar  
    11     6     7 1   
    12     6    15 2   
    13     7     8 ar  
    14     7    13 ar  
    15     8     9 ar  
    16     8    28 1   
    17     9    10 ar  
    18     9    29 1   
    19    10    11 1   
    20    10    12 ar  
    21    11    30 1   
    22    12    13 ar  
    23    12    31 1   
    24    13    14 1   
    25    14    32 1   
    26    15    16 1   
    27    16    17 ar  
    28    16    22 ar  
    29    17    18 ar  
    30    17    33 1   
    31    18    19 ar  
    32    18    34 1   
    33    19    20 1   
    34    19    21 ar  
    35    21    22 ar  
    36    21    35 1   
    37    22    36 1   
    38    23    24 ar  
    39    23    37 1   
    40    24    38 1   
@<TRIPOS>SUBSTRUCTURE
     1 5J2         1 TEMP              0 ****  ****    0 ROOT
