@<TRIPOS>MOLECULE
5J4
   29    32     1     0     0
SMALL
bcc


@<TRIPOS>ATOM
      1 C1           0.0000     0.0000     0.0000 ca         1 5J4      -0.041400
      2 C2           1.3950     0.0000     0.0000 ca         1 5J4      -0.117000
      3 C3           2.0900     0.0000     1.1670 ca         1 5J4      -0.011000
      4 C4           1.4130     0.0010     2.4090 ca         1 5J4       0.051400
      5 C5           0.0120     0.0020     2.4040 ca         1 5J4       0.008900
      6 C6          -0.6880     0.0010     1.2010 ca         1 5J4      -0.079000
      7 C8           1.1130     0.0010     4.6440 cc         1 5J4       0.341200
      8 C10          1.5180     0.0020     6.0600 cc         1 5J4       0.458100
      9 C12          1.7980     0.0020     8.5330 cc         1 5J4      -0.129400
     10 C13          2.9210    -0.0020     7.7960 cd         1 5J4       0.550600
     11 N7           1.9300     0.0020     3.6430 nd         1 5J4      -0.387100
     12 S9          -0.5500     0.0020     4.0750 ss         1 5J4      -0.196100
     13 S11          0.4180     0.0020     7.4360 ss         1 5J4      -0.298300
     14 N14          2.7480    -0.0030     6.4950 nd         1 5J4      -0.541000
     15 N15         -0.7000     0.0050    -1.2070 nu         1 5J4       0.005000
     16 C16         -0.1580     0.5760    -2.2930 cc         1 5J4      -0.020400
     17 C17         -0.5250     0.6910    -3.7200 cc         1 5J4      -0.361000
     18 C18          0.6550     1.4360    -3.9270 cd         1 5J4       0.066000
     19 C19          1.0570     1.3660    -2.5770 cd         1 5J4      -0.361000
     20 O20          4.1590    -0.0030     8.3620 oh         1 5J4      -0.593300
     21 H1           1.9310    -0.0010    -0.9420 ha         1 5J4       0.154000
     22 H2           3.1740    -0.0000     1.1470 ha         1 5J4       0.122000
     23 H3          -1.7720     0.0010     1.2050 ha         1 5J4       0.119000
     24 H5           1.7480     0.0030     9.6150 h4         1 5J4       0.171000
     25 H7          -1.5960    -0.4370    -1.2680 hn         1 5J4       0.276800
     26 H9          -1.4840     1.1080    -4.0010 ha         1 5J4       0.132500
     27 H11          1.3440     1.1510    -4.7130 ha         1 5J4       0.134000
     28 H13          1.2540     2.2760    -2.0230 ha         1 5J4       0.132500
     29 H17          4.5840     0.8200     8.1890 ho         1 5J4       0.411000
@<TRIPOS>BOND
     1     1     2 ar  
     2     1     6 ar  
     3     1    15 1   
     4     2     3 ar  
     5     2    21 1   
     6     3     4 ar  
     7     3    22 1   
     8     4     5 ar  
     9     4    11 1   
    10     5     6 ar  
    11     5    12 1   
    12     6    23 1   
    13     7     8 1   
    14     7    11 2   
    15     7    12 1   
    16     8    13 1   
    17     8    14 2   
    18     9    10 2   
    19     9    13 1   
    20     9    24 1   
    21    10    14 1   
    22    10    20 1   
    23    15    16 1   
    24    15    25 1   
    25    16    17 1   
    26    16    19 2   
    27    17    18 2   
    28    17    26 1   
    29    18    19 1   
    30    18    27 1   
    31    19    28 1   
    32    20    29 1   
@<TRIPOS>SUBSTRUCTURE
     1 5J4         1 TEMP              0 ****  ****    0 ROOT
