@<TRIPOS>MOLECULE
molecule
   29    32     1     0     0
SMALL
bcc


@<TRIPOS>ATOM
      1 C1           0.0000     0.0000     0.0000 ca         1 5J4       0.142600
      2 C2           1.3950     0.0000     0.0000 ca         1 5J4      -0.139000
      3 C3           2.0900     0.0000     1.1670 ca         1 5J4      -0.044000
      4 C4           1.4130     0.0010     2.4090 ca         1 5J4       0.105400
      5 C5           0.0120     0.0020     2.4040 ca         1 5J4      -0.026100
      6 C6          -0.6880     0.0010     1.2010 ca         1 5J4      -0.129000
      7 C8           1.1130     0.0010     4.6440 cc         1 5J4       0.370200
      8 C10          1.5180     0.0020     6.0600 cc         1 5J4       0.475100
      9 C12          1.7980     0.0020     8.5330 cc         1 5J4      -0.189400
     10 C13          2.9210    -0.0020     7.7960 cd         1 5J4       0.584600
     11 N7           1.9300     0.0020     3.6430 nd         1 5J4      -0.521100
     12 S9          -0.5500     0.0020     4.0750 ss         1 5J4      -0.112100
     13 S11          0.4180     0.0020     7.4360 ss         1 5J4      -0.200300
     14 N14          2.7480    -0.0030     6.4950 nd         1 5J4      -0.664000
     15 N15         -0.7000     0.0050    -1.2070 nu         1 5J4      -0.559000
     16 C16         -0.1580     0.5760    -2.2930 cc         1 5J4       0.208600
     17 C17         -0.5250     0.6910    -3.7200 cc         1 5J4      -0.388500
     18 C18          0.6550     1.4360    -3.9270 cd         1 5J4       0.038000
     19 C19          1.0570     1.3660    -2.5770 cd         1 5J4      -0.388500
     20 O20          4.1590    -0.0030     8.3620 oh         1 5J4      -0.602300
     21 H1           1.9310    -0.0010    -0.9420 ha         1 5J4       0.185000
     22 H2           3.1740    -0.0000     1.1470 ha         1 5J4       0.160000
     23 H3          -1.7720     0.0010     1.2050 ha         1 5J4       0.140000
     24 H5           1.7480     0.0030     9.6150 h4         1 5J4       0.195000
     25 H7          -1.5960    -0.4370    -1.2680 hn         1 5J4       0.460800
     26 H9          -1.4840     1.1080    -4.0010 ha         1 5J4       0.151000
     27 H11          1.3440     1.1510    -4.7130 ha         1 5J4       0.167000
     28 H13          1.2540     2.2760    -2.0230 ha         1 5J4       0.151000
     29 H17          4.5840     0.8200     8.1890 ho         1 5J4       0.431000
@<TRIPOS>BOND
     1     1     2 ar  
     2     1     6 ar  
     3     1    15 1   
     4     2     3 ar  
     5     3     4 ar  
     6     4     5 ar  
     7     4    11 1   
     8     5     6 ar  
     9     5    12 1   
    10     7     8 1   
    11     7    11 2   
    12     7    12 1   
    13     8    13 1   
    14     8    14 2   
    15     9    10 2   
    16     9    13 1   
    17    10    14 1   
    18    10    20 1   
    19    15    16 1   
    20    16    17 1   
    21    16    19 2   
    22    17    18 2   
    23    18    19 1   
    24     2    21 1   
    25     3    22 1   
    26     6    23 1   
    27     9    24 1   
    28    15    25 1   
    29    17    26 1   
    30    18    27 1   
    31    19    28 1   
    32    20    29 1   
@<TRIPOS>SUBSTRUCTURE
     1 5J4         1 TEMP              0 ****  ****    0 ROOT
