@<TRIPOS>MOLECULE
5J5
   37    38     1     0     0
SMALL
bcc


@<TRIPOS>ATOM
      1 O5           0.0000     0.0000     0.0000 o          1 5J5      -0.661200
      2 S1           1.5230     0.0000     0.0000 s6         1 5J5       1.039100
      3 O4           1.9240     0.0000     1.3620 o          1 5J5      -0.661200
      4 O6           1.9230    -0.9990    -0.9290 o          1 5J5      -0.661200
      5 C13          2.0440     1.5420    -0.6740 ca         1 5J5      -0.148500
      6 C2           2.3160     1.6500    -2.0340 ca         1 5J5       0.007600
      7 N            2.1750     0.5360    -2.8630 ns         1 5J5      -0.001100
      8 C            3.0150     0.3580    -3.9010 c          1 5J5       0.539100
      9 C1           2.7850    -0.7730    -4.8720 c3         1 5J5       0.009000
     10 Cl           4.0660    -0.7460    -6.1410 cl         1 5J5      -0.132400
     11 O            3.9560     1.1070    -4.0570 o          1 5J5      -0.656100
     12 C12          2.1760     2.6410     0.1450 ca         1 5J5       0.068000
     13 C5           2.5910     3.8650    -0.3900 ca         1 5J5       0.004400
     14 C4           2.8690     3.9680    -1.7570 ca         1 5J5      -0.062000
     15 C3           2.7280     2.8650    -2.5710 ca         1 5J5      -0.162000
     16 N1           2.7220     4.9560     0.4180 ne         1 5J5      -0.158400
     17 N2           3.1040     6.0840    -0.0770 nf         1 5J5      -0.206400
     18 C6           3.2360     7.1770     0.7340 ca         1 5J5       0.092400
     19 C11          3.6500     8.4010     0.1990 ca         1 5J5      -0.127000
     20 C10          3.7800     9.4990     1.0230 ca         1 5J5      -0.032500
     21 C9           3.5030     9.3920     2.3740 ca         1 5J5      -0.086500
     22 S            3.6720    10.8010     3.4200 s6         1 5J5       1.031100
     23 O3           4.5890    11.6730     2.7710 o          1 5J5      -0.663533
     24 O2           2.3310    11.5180     3.4300 o          1 5J5      -0.663533
     25 O1           3.8720    10.3040     4.7350 o          1 5J5      -0.663533
     26 C8           3.0930     8.1830     2.9100 ca         1 5J5      -0.032500
     27 C7           2.9530     7.0780     2.0980 ca         1 5J5      -0.127000
     28 H1           1.4200    -0.1040    -2.7160 hn         1 5J5       0.220500
     29 H2           1.8130    -0.6580    -5.3370 h1         1 5J5       0.035200
     30 H3           2.8220    -1.7170    -4.3410 h1         1 5J5       0.035200
     31 H4           1.9230     2.5670     1.1960 ha         1 5J5       0.131000
     32 H5           3.1400     4.9260    -2.1840 ha         1 5J5       0.115000
     33 H6           2.9090     2.9530    -3.6360 ha         1 5J5       0.123000
     34 H7           3.7810     8.5080    -0.8710 ha         1 5J5       0.107500
     35 H8           4.1000    10.4490     0.6110 ha         1 5J5       0.120500
     36 H9           2.8810     8.1060     3.9700 ha         1 5J5       0.120500
     37 H10          2.6080     6.2470     2.7020 ha         1 5J5       0.107500
@<TRIPOS>BOND
     1     1     2 1   
     2     2     3 1   
     3     2     4 1   
     4     2     5 1   
     5     5     6 ar  
     6     5    12 ar  
     7     6     7 1   
     8     6    15 ar  
     9     7     8 1   
    10     7    28 1   
    11     8     9 1   
    12     8    11 2   
    13     9    10 1   
    14     9    29 1   
    15     9    30 1   
    16    12    13 ar  
    17    12    31 1   
    18    13    14 ar  
    19    13    16 1   
    20    14    15 ar  
    21    14    32 1   
    22    15    33 1   
    23    16    17 2   
    24    17    18 1   
    25    18    19 ar  
    26    18    27 ar  
    27    19    20 ar  
    28    19    34 1   
    29    20    21 ar  
    30    20    35 1   
    31    21    22 1   
    32    21    26 ar  
    33    22    23 1   
    34    22    24 1   
    35    22    25 1   
    36    26    27 ar  
    37    26    36 1   
    38    27    37 1   
@<TRIPOS>SUBSTRUCTURE
     1 5J5         1 TEMP              0 ****  ****    0 ROOT
