@<TRIPOS>MOLECULE
molecule
   37    38     1     0     0
SMALL
bcc


@<TRIPOS>ATOM
      1 O5           0.0000     0.0000     0.0000 o          1 5J5      -0.713867
      2 S1           1.5230     0.0000     0.0000 s6         1 5J5       1.333100
      3 O4           1.9240     0.0000     1.3620 o          1 5J5      -0.713867
      4 O6           1.9230    -0.9990    -0.9290 o          1 5J5      -0.713867
      5 C13          2.0440     1.5420    -0.6740 ca         1 5J5      -0.307500
      6 C2           2.3160     1.6500    -2.0340 ca         1 5J5       0.153600
      7 N            2.1750     0.5360    -2.8630 ns         1 5J5      -0.449100
      8 C            3.0150     0.3580    -3.9010 c          1 5J5       0.649100
      9 C1           2.7850    -0.7730    -4.8720 c3         1 5J5      -0.025000
     10 Cl           4.0660    -0.7460    -6.1410 cl         1 5J5      -0.189400
     11 O            3.9560     1.1070    -4.0570 o          1 5J5      -0.596100
     12 C12          2.1760     2.6410     0.1450 ca         1 5J5       0.039000
     13 C5           2.5910     3.8650    -0.3900 ca         1 5J5       0.049400
     14 C4           2.8690     3.9680    -1.7570 ca         1 5J5      -0.082000
     15 C3           2.7280     2.8650    -2.5710 ca         1 5J5      -0.178000
     16 N1           2.7220     4.9560     0.4180 ne         1 5J5      -0.211400
     17 N2           3.1040     6.0840    -0.0770 nf         1 5J5      -0.253400
     18 C6           3.2360     7.1770     0.7340 ca         1 5J5       0.128400
     19 C11          3.6500     8.4010     0.1990 ca         1 5J5      -0.135000
     20 C10          3.7800     9.4990     1.0230 ca         1 5J5      -0.061500
     21 C9           3.5030     9.3920     2.3740 ca         1 5J5      -0.247500
     22 S            3.6720    10.8010     3.4200 s6         1 5J5       1.329100
     23 O3           4.5890    11.6730     2.7710 o          1 5J5      -0.715867
     24 O2           2.3310    11.5180     3.4300 o          1 5J5      -0.715867
     25 O1           3.8720    10.3040     4.7350 o          1 5J5      -0.715867
     26 C8           3.0930     8.1830     2.9100 ca         1 5J5      -0.061500
     27 C7           2.9530     7.0780     2.0980 ca         1 5J5      -0.135000
     28 H1           1.4200    -0.1040    -2.7160 hn         1 5J5       0.362500
     29 H2           1.8130    -0.6580    -5.3370 h1         1 5J5       0.082700
     30 H3           2.8220    -1.7170    -4.3410 h1         1 5J5       0.082700
     31 H4           1.9220     2.5670     1.1960 ha         1 5J5       0.166000
     32 H5           3.2440     4.8980    -2.1650 ha         1 5J5       0.145000
     33 H6           2.9090     2.9530    -3.6360 ha         1 5J5       0.140000
     34 H7           3.9510     8.4640    -0.8400 ha         1 5J5       0.133000
     35 H8           4.1000    10.4490     0.6110 ha         1 5J5       0.146500
     36 H9           2.8800     8.1060     3.9700 ha         1 5J5       0.146500
     37 H10          2.6040     6.2480     2.7010 ha         1 5J5       0.133000
@<TRIPOS>BOND
     1    10     9 1   
     2     9     8 1   
     3     8    11 2   
     4     8     7 1   
     5     7     6 1   
     6     4     2 1   
     7     6    15 ar  
     8     6     5 ar  
     9     3     2 1   
    10    15    14 ar  
    11     2     5 1   
    12     2     1 1   
    13     5    12 ar  
    14    14    13 ar  
    15    12    13 ar  
    16    13    16 1   
    17    16    17 2   
    18    17    18 1   
    19    18    19 ar  
    20    18    27 ar  
    21    19    20 ar  
    22    27    26 ar  
    23    20    21 ar  
    24    26    21 ar  
    25    21    22 1   
    26    22    23 1   
    27    22    25 1   
    28    22    24 1   
    29     7    28 1   
    30     9    29 1   
    31     9    30 1   
    32    12    31 1   
    33    14    32 1   
    34    15    33 1   
    35    19    34 1   
    36    20    35 1   
    37    26    36 1   
    38    27    37 1   
@<TRIPOS>SUBSTRUCTURE
     1 5J5         1 TEMP              0 ****  ****    0 ROOT
