@<TRIPOS>MOLECULE
molecule
   48    51     1     0     0
SMALL
bcc


@<TRIPOS>ATOM
      1 F1           0.0000     0.0000     0.0000 f          1 5J6      -0.131900
      2 C27          1.3510     0.0000     0.0000 ca         1 5J6       0.153900
      3 C26          2.0410     0.0000     1.2010 ca         1 5J6      -0.150000
      4 C25          3.4220    -0.0010     1.2060 ca         1 5J6       0.046100
      5 Br1          4.3630    -0.0010     2.8460 br         1 5J6      -0.056100
      6 C28          2.0420    -0.0060    -1.2020 ca         1 5J6      -0.163000
      7 C29          3.4210    -0.0060    -1.2080 ca         1 5J6      -0.079000
      8 C24          4.1210    -0.0010    -0.0020 cp         1 5J6      -0.155500
      9 C6           5.6010    -0.0020    -0.0030 cp         1 5J6       0.555800
     10 N5           6.2780    -0.9290     0.6670 nb         1 5J6      -0.716000
     11 C4           7.6040    -0.9320     0.6670 ca         1 5J6       0.685000
     12 C15          8.3170    -1.9810     1.4240 cc         1 5J6       0.385400
     13 S19          7.5550    -3.2680     2.3540 ss         1 5J6      -0.101300
     14 C18          9.0940    -3.8760     2.7910 cc         1 5J6      -0.219400
     15 C17         10.0420    -3.1100     2.2360 cd         1 5J6       0.350200
     16 N16          9.6130    -2.1090     1.5080 nd         1 5J6      -0.625000
     17 N3           8.3120    -0.0200     0.0080 nb         1 5J6      -0.697000
     18 C7           6.3210     0.9810    -0.7200 ca         1 5J6      -0.328200
     19 C20          5.6180     2.0300    -1.4770 c          1 5J6       0.649700
     20 O22          5.2910     1.8250    -2.7690 os         1 5J6      -0.435900
     21 C23          4.6000     2.9030    -3.4530 c3         1 5J6       0.135700
     22 O21          5.3340     3.0810    -0.9380 o          1 5J6      -0.504000
     23 C2           7.7200     0.9350    -0.6820 ca         1 5J6       0.510600
     24 C1           8.5380     1.9580    -1.4280 c3         1 5J6       0.109500
     25 N9           8.8000     3.1080    -0.5530 n3         1 5J6      -0.720600
     26 C14          9.6680     2.7280     0.5710 c3         1 5J6       0.123800
     27 C13          9.8670     3.9380     1.4880 c3         1 5J6       0.139900
     28 O12         10.4080     5.0220     0.7270 os         1 5J6      -0.426600
     29 C11          9.5880     5.4180    -0.3750 c3         1 5J6       0.139900
     30 C10          9.3870     4.2230    -1.3100 c3         1 5J6       0.123800
     31 H1           1.4970    -0.0050     2.1380 ha         1 5J6       0.164000
     32 H2           1.4970    -0.0100    -2.1390 ha         1 5J6       0.153000
     33 H3           3.9590    -0.0090    -2.1480 ha         1 5J6       0.161000
     34 H4           9.2720    -4.7410     3.4170 h4         1 5J6       0.184000
     35 H5          11.0980    -3.3080     2.3760 h4         1 5J6       0.045100
     36 H6           4.2080     2.5390    -4.3960 h1         1 5J6       0.052367
     37 H7           3.7840     3.2580    -2.8360 h1         1 5J6       0.052367
     38 H8           5.2920     3.7150    -3.6390 h1         1 5J6       0.052367
     39 H9           7.9930     2.2870    -2.3040 h1         1 5J6       0.060200
     40 H10          9.4790     1.5150    -1.7330 h1         1 5J6       0.060200
     41 H12         10.6280     2.4020     0.1900 h1         1 5J6       0.048200
     42 H13          9.2030     1.9250     1.1290 h1         1 5J6       0.048200
     43 H14          8.9130     4.2330     1.9080 h1         1 5J6       0.055700
     44 H15         10.5540     3.6780     2.2840 h1         1 5J6       0.055700
     45 H16         10.0740     6.2210    -0.9160 h1         1 5J6       0.055700
     46 H17          8.6260     5.7530    -0.0070 h1         1 5J6       0.055700
     47 H18          8.7190     4.5040    -2.1150 h1         1 5J6       0.048200
     48 H19         10.3440     3.9190    -1.7160 h1         1 5J6       0.048200
@<TRIPOS>BOND
     1    22    19 2   
     2    21    20 1   
     3    26    27 1   
     4    26    25 1   
     5    24    25 1   
     6    24    23 1   
     7    19    20 1   
     8    19    18 1   
     9    27    28 1   
    10    25    30 1   
    11    23    18 ar  
    12    23    17 ar  
    13    18     9 ar  
    14    28    29 1   
    15    17    11 ar  
    16    30    29 1   
    17     9    10 ar  
    18     9     8 1   
    19     5     4 1   
    20    11    10 ar  
    21    11    12 1   
    22     8     4 ar  
    23     8     7 ar  
    24    16    12 2   
    25    16    15 1   
    26     4     3 ar  
    27    12    13 1   
    28     7     6 ar  
    29    15    14 2   
    30     3     2 ar  
    31    13    14 1   
    32     6     2 ar  
    33     2     1 1   
    34     3    31 1   
    35     6    32 1   
    36     7    33 1   
    37    14    34 1   
    38    15    35 1   
    39    21    36 1   
    40    21    37 1   
    41    21    38 1   
    42    24    39 1   
    43    24    40 1   
    44    26    41 1   
    45    26    42 1   
    46    27    43 1   
    47    27    44 1   
    48    29    45 1   
    49    29    46 1   
    50    30    47 1   
    51    30    48 1   
@<TRIPOS>SUBSTRUCTURE
     1 5J6         1 TEMP              0 ****  ****    0 ROOT
