@<TRIPOS>MOLECULE
5J6
   48    51     1     0     0
SMALL
bcc


@<TRIPOS>ATOM
      1 F1           0.0000     0.0000     0.0000 f          1 5J6      -0.122900
      2 C27          1.3510     0.0000     0.0000 ca         1 5J6       0.125900
      3 C26          2.0410     0.0000     1.2010 ca         1 5J6      -0.120000
      4 C25          3.4220    -0.0010     1.2060 ca         1 5J6       0.089100
      5 Br1          4.3630    -0.0010     2.8460 br         1 5J6      -0.087100
      6 C28          2.0420    -0.0060    -1.2020 ca         1 5J6      -0.129000
      7 C29          3.4210    -0.0060    -1.2080 ca         1 5J6      -0.062000
      8 C24          4.1210    -0.0010    -0.0020 cp         1 5J6      -0.161500
      9 C6           5.6010    -0.0020    -0.0030 cp         1 5J6       0.510800
     10 N5           6.2780    -0.9290     0.6670 nb         1 5J6      -0.591000
     11 C4           7.6040    -0.9320     0.6670 ca         1 5J6       0.591000
     12 C15          8.3170    -1.9810     1.4240 cc         1 5J6       0.374400
     13 S19          7.5550    -3.2680     2.3540 ss         1 5J6      -0.245300
     14 C18          9.0940    -3.8760     2.7910 cc         1 5J6      -0.127400
     15 C17         10.0420    -3.1100     2.2360 cd         1 5J6       0.335200
     16 N16          9.6130    -2.1090     1.5080 nd         1 5J6      -0.510000
     17 N3           8.3120    -0.0200     0.0080 nb         1 5J6      -0.575000
     18 C7           6.3210     0.9810    -0.7200 ca         1 5J6      -0.327200
     19 C20          5.6180     2.0300    -1.4770 c          1 5J6       0.723700
     20 O22          5.2910     1.8250    -2.7690 os         1 5J6      -0.420900
     21 C23          4.6000     2.9030    -3.4530 c3         1 5J6       0.264700
     22 O21          5.3340     3.0810    -0.9380 o          1 5J6      -0.544000
     23 C2           7.7200     0.9350    -0.6820 ca         1 5J6       0.447600
     24 C1           8.5380     1.9580    -1.4280 c3         1 5J6       0.098500
     25 N9           8.8000     3.1080    -0.5530 n3         1 5J6      -0.527600
     26 C14          9.6680     2.7280     0.5710 c3         1 5J6       0.107300
     27 C13          9.8670     3.9380     1.4880 c3         1 5J6       0.214400
     28 O12         10.4080     5.0220     0.7270 os         1 5J6      -0.412600
     29 C11          9.5880     5.4180    -0.3750 c3         1 5J6       0.214400
     30 C10          9.3870     4.2230    -1.3100 c3         1 5J6       0.107300
     31 H1           1.4970    -0.0050     2.1380 ha         1 5J6       0.135000
     32 H2           1.4970    -0.0100    -2.1390 ha         1 5J6       0.123000
     33 H3           3.9590    -0.0090    -2.1480 ha         1 5J6       0.128000
     34 H4           9.2720    -4.7410     3.4170 h4         1 5J6       0.160000
     35 H5          11.0980    -3.3080     2.3760 h4         1 5J6       0.001100
     36 H6           4.2080     2.5390    -4.3960 h1         1 5J6       0.004367
     37 H7           3.7840     3.2580    -2.8360 h1         1 5J6       0.004367
     38 H8           5.2920     3.7150    -3.6390 h1         1 5J6       0.004367
     39 H9           7.9930     2.2870    -2.3040 h1         1 5J6       0.027200
     40 H10          9.4790     1.5150    -1.7330 h1         1 5J6       0.027200
     41 H12         10.6280     2.4020     0.1900 h1         1 5J6       0.021950
     42 H13          9.2030     1.9250     1.1290 h1         1 5J6       0.021950
     43 H14          8.9130     4.2330     1.9080 h1         1 5J6       0.014450
     44 H15         10.5540     3.6780     2.2840 h1         1 5J6       0.014450
     45 H16         10.0740     6.2210    -0.9160 h1         1 5J6       0.014450
     46 H17          8.6260     5.7530    -0.0070 h1         1 5J6       0.014450
     47 H18          8.7190     4.5040    -2.1150 h1         1 5J6       0.021950
     48 H19         10.3440     3.9190    -1.7160 h1         1 5J6       0.021950
@<TRIPOS>BOND
     1     1     2 1   
     2     2     3 ar  
     3     2     6 ar  
     4     3     4 ar  
     5     3    31 1   
     6     4     5 1   
     7     4     8 ar  
     8     6     7 ar  
     9     6    32 1   
    10     7     8 ar  
    11     7    33 1   
    12     8     9 1   
    13     9    10 ar  
    14     9    18 ar  
    15    10    11 ar  
    16    11    12 1   
    17    11    17 ar  
    18    12    13 1   
    19    12    16 2   
    20    13    14 1   
    21    14    15 2   
    22    14    34 1   
    23    15    16 1   
    24    15    35 1   
    25    17    23 ar  
    26    18    19 1   
    27    18    23 ar  
    28    19    20 1   
    29    19    22 2   
    30    20    21 1   
    31    21    36 1   
    32    21    37 1   
    33    21    38 1   
    34    23    24 1   
    35    24    25 1   
    36    24    39 1   
    37    24    40 1   
    38    25    26 1   
    39    25    30 1   
    40    26    27 1   
    41    26    41 1   
    42    26    42 1   
    43    27    28 1   
    44    27    43 1   
    45    27    44 1   
    46    28    29 1   
    47    29    30 1   
    48    29    45 1   
    49    29    46 1   
    50    30    47 1   
    51    30    48 1   
@<TRIPOS>SUBSTRUCTURE
     1 5J6         1 TEMP              0 ****  ****    0 ROOT
