@<TRIPOS>MOLECULE
5J9
   52    56     1     0     0
SMALL
bcc


@<TRIPOS>ATOM
      1 C4           0.0000     0.0000     0.0000 ca         1 5J9       0.225800
      2 C14         -5.4920     0.8460    -2.4770 cc         1 5J9      -0.426600
      3 C5           1.4050     0.0000     0.0000 ca         1 5J9      -0.179200
      4 C6           2.0690     0.0000     1.2390 ca         1 5J9       0.615200
      5 C8           0.7600    -0.0090    -2.0710 cc         1 5J9       0.275700
      6 C13         -6.6340     1.5500    -2.2910 cd         1 5J9       0.197600
      7 N1           1.3380    -0.0000     2.3490 nb         1 5J9      -0.643000
      8 N3          -0.6450    -0.0010     1.1610 nb         1 5J9      -0.648000
      9 C2T         -8.6430     2.2700     0.1130 c          1 5J9       0.664900
     10 N3T         -8.7830     2.4270     1.4280 nc         1 5J9      -0.469100
     11 C4T         -8.3820     1.4830     2.2700 cd         1 5J9       0.259500
     12 N4T         -8.5320     1.6560     3.6260 nz         1 5J9       0.202400
     13 C5T         -7.8060     0.2990     1.7650 cd         1 5J9      -0.381600
     14 C6T         -7.6710     0.1540     0.4250 cc         1 5J9      -0.008400
     15 N1T         -8.1010     1.1500    -0.3990 n          1 5J9       0.139000
     16 C15         -7.9680     1.0030    -1.8500 c3         1 5J9       0.019700
     17 N12         -6.3450     2.8250    -2.5730 nd         1 5J9      -0.256000
     18 N11         -5.1070     2.9070    -2.9120 nc         1 5J9      -0.349800
     19 N10         -4.5580     1.7430    -2.8670 na         1 5J9       0.630400
     20 C3'         -3.1590     1.4420    -3.1860 c3         1 5J9      -0.186000
     21 C2'         -2.3020     1.4330    -1.9010 c3         1 5J9       0.054100
     22 O2'         -3.1090     1.7210    -0.7570 oh         1 5J9      -0.556800
     23 C4'         -3.0270     0.0050    -3.7360 c3         1 5J9       0.256100
     24 C5'         -2.9660     0.0240    -5.2640 c3         1 5J9       0.042400
     25 O5'         -2.9610    -1.3180    -5.7580 oh         1 5J9      -0.546800
     26 O4'         -1.7840    -0.4860    -3.1900 os         1 5J9      -0.372600
     27 C1'         -1.7520    -0.0090    -1.8270 c3         1 5J9       0.172800
     28 N9          -0.3780    -0.0060    -1.3190 na         1 5J9       0.180000
     29 N7           1.8040    -0.0000    -1.2950 nd         1 5J9      -0.468100
     30 C2           0.0180    -0.0010     2.2980 ca         1 5J9       0.645900
     31 N6           3.4510    -0.0000     1.3020 nv         1 5J9      -0.643500
     32 H1          -5.3540    -0.2190    -2.3400 h4         1 5J9       0.167000
     33 H2           0.7900    -0.0180    -3.1530 h5         1 5J9       0.046800
     34 H3          -8.7980     2.6020     3.8140 hn         1 5J9       0.221467
     35 H4          -7.6660     1.4550     4.0850 hn         1 5J9       0.221467
     36 H7          -8.7630     1.5490    -2.3430 h1         1 5J9       0.065200
     37 H8          -8.0330    -0.0460    -2.1150 h1         1 5J9       0.065200
     38 H9          -2.7630     2.1570    -3.8980 h1         1 5J9       0.098700
     39 H10         -1.8590     2.1980    -2.5270 h1         1 5J9       0.101700
     40 H11         -2.4080     2.3490    -0.8130 ho         1 5J9       0.441000
     41 H12         -3.8540    -0.6050    -3.3930 h1         1 5J9       0.021700
     42 H13         -3.8140    -0.3910    -4.7320 h1         1 5J9       0.051200
     43 H14         -3.4230     0.8160    -5.8440 h1         1 5J9       0.051200
     44 H15         -2.6450    -1.3250    -6.6460 ho         1 5J9       0.403000
     45 H16         -2.3900    -0.6210    -1.2000 h2         1 5J9       0.060700
     46 H17         -0.6080    -0.1540     3.1690 h5         1 5J9      -0.004900
     47 H18          3.9510     0.8660     1.3250 hn         1 5J9       0.289300
     48 H19          3.9500    -0.8670     1.3380 hn         1 5J9       0.289300
     49 H5          -7.6520    -0.5500     2.4200 ha         1 5J9       0.150000
     50 O2T         -9.0180     3.1540    -0.6400 o          1 5J9      -0.556500
     51 H4T3        -9.2410     1.0360     3.9650 hn         1 5J9       0.221467
     52 H6          -7.3730    -0.8010     0.0110 h4         1 5J9       0.153000
@<TRIPOS>BOND
     1     1     3 ar  
     2     1     8 ar  
     3     1    28 1   
     4     2     6 2   
     5     2    19 1   
     6     2    32 1   
     7     3     4 ar  
     8     3    29 1   
     9     4     7 ar  
    10     4    31 1   
    11     5    28 1   
    12     5    29 2   
    13     5    33 1   
    14     6    16 1   
    15     6    17 1   
    16     7    30 ar  
    17     8    30 ar  
    18     9    10 1   
    19     9    15 1   
    20     9    50 2   
    21    10    11 2   
    22    11    12 1   
    23    11    13 1   
    24    12    34 1   
    25    12    35 1   
    26    12    51 1   
    27    13    14 2   
    28    13    49 1   
    29    14    15 1   
    30    14    52 1   
    31    15    16 1   
    32    16    36 1   
    33    16    37 1   
    34    17    18 2   
    35    18    19 1   
    36    19    20 1   
    37    20    21 1   
    38    20    23 1   
    39    20    38 1   
    40    21    22 1   
    41    21    27 1   
    42    21    39 1   
    43    22    40 1   
    44    23    24 1   
    45    23    26 1   
    46    23    41 1   
    47    24    25 1   
    48    24    42 1   
    49    24    43 1   
    50    25    44 1   
    51    26    27 1   
    52    27    28 1   
    53    27    45 1   
    54    30    46 1   
    55    31    47 1   
    56    31    48 1   
@<TRIPOS>SUBSTRUCTURE
     1 5J9         1 TEMP              0 ****  ****    0 ROOT
