@<TRIPOS>MOLECULE
molecule
   52    56     1     0     0
SMALL
bcc


@<TRIPOS>ATOM
      1 C4           0.0000     0.0000     0.0000 ca         1 5J9       0.436800
      2 C14         -5.4920     0.8460    -2.4770 cc         1 5J9      -0.262600
      3 C5           1.4050     0.0000     0.0000 ca         1 5J9      -0.150200
      4 C6           2.0690     0.0000     1.2390 ca         1 5J9       0.790200
      5 C8           0.7600    -0.0090    -2.0710 cc         1 5J9       0.448700
      6 C13         -6.6340     1.5500    -2.2910 cd         1 5J9       0.220600
      7 N1           1.3380    -0.0000     2.3490 nb         1 5J9      -0.759000
      8 N3          -0.6450    -0.0010     1.1610 nb         1 5J9      -0.775000
      9 C2T         -8.6430     2.2700     0.1130 c          1 5J9       0.820900
     10 N3T         -8.7830     2.4270     1.4280 nc         1 5J9      -0.625100
     11 C4T         -8.3820     1.4830     2.2700 cd         1 5J9       0.568500
     12 N4T         -8.5320     1.6560     3.6260 nz         1 5J9      -0.740600
     13 C5T         -7.8060     0.2990     1.7650 cd         1 5J9      -0.433600
     14 C6T         -7.6710     0.1540     0.4250 cc         1 5J9       0.127600
     15 N1T         -8.1010     1.1500    -0.3990 n          1 5J9      -0.312000
     16 C15         -7.9680     1.0030    -1.8500 c3         1 5J9       0.079700
     17 N12         -6.3450     2.8250    -2.5730 nd         1 5J9      -0.316000
     18 N11         -5.1070     2.9070    -2.9120 nc         1 5J9      -0.172800
     19 N10         -4.5580     1.7430    -2.8670 na         1 5J9       0.145400
     20 C3'         -3.1590     1.4420    -3.1860 c3         1 5J9      -0.038000
     21 C2'         -2.3020     1.4330    -1.9010 c3         1 5J9       0.020100
     22 O2'         -3.1090     1.7210    -0.7570 oh         1 5J9      -0.539800
     23 C4'         -3.0270     0.0050    -3.7360 c3         1 5J9       0.191100
     24 C5'         -2.9660     0.0240    -5.2640 c3         1 5J9      -0.011600
     25 O5'         -2.9610    -1.3180    -5.7580 oh         1 5J9      -0.569800
     26 O4'         -1.7840    -0.4860    -3.1900 os         1 5J9      -0.384600
     27 C1'         -1.7520    -0.0090    -1.8270 c3         1 5J9       0.264800
     28 N9          -0.3780    -0.0060    -1.3190 na         1 5J9      -0.268000
     29 N7           1.8040    -0.0000    -1.2950 nd         1 5J9      -0.561100
     30 C2           0.0180    -0.0010     2.2980 ca         1 5J9       0.705900
     31 N6           3.4510    -0.0000     1.3020 nv         1 5J9      -1.070500
     32 H1          -5.3540    -0.2190    -2.3400 h4         1 5J9       0.183000
     33 H2           0.7900    -0.0180    -3.1530 h5         1 5J9       0.096800
     34 H3          -8.7980     2.6020     3.8140 hn         1 5J9       0.477133
     35 H4          -7.6660     1.4550     4.0850 hn         1 5J9       0.477133
     36 H7          -8.7630     1.5490    -2.3430 h1         1 5J9       0.101700
     37 H8          -8.0330    -0.0460    -2.1150 h1         1 5J9       0.101700
     38 H9          -2.7630     2.1570    -3.8980 h1         1 5J9       0.123700
     39 H10         -1.8590     2.1980    -2.5270 h1         1 5J9       0.126700
     40 H11         -2.4080     2.3490    -0.8130 ho         1 5J9       0.438000
     41 H12         -3.8540    -0.6050    -3.3930 h1         1 5J9       0.047700
     42 H13         -3.8140    -0.3910    -4.7320 h1         1 5J9       0.095200
     43 H14         -3.4230     0.8160    -5.8440 h1         1 5J9       0.095200
     44 H15         -2.6450    -1.3250    -6.6460 ho         1 5J9       0.410000
     45 H16         -2.3900    -0.6210    -1.2000 h2         1 5J9       0.102700
     46 H17         -0.6080    -0.1540     3.1690 h5         1 5J9       0.060100
     47 H18          3.9510     0.8660     1.3250 hn         1 5J9       0.451300
     48 H19          3.9500    -0.8670     1.3380 hn         1 5J9       0.451300
     49 H5          -7.6520    -0.5500     2.4200 ha         1 5J9       0.171000
     50 O2T         -9.0180     3.1540    -0.6400 o          1 5J9      -0.513500
     51 H4T3        -9.2410     1.0360     3.9650 hn         1 5J9       0.477133
     52 H6          -7.3730    -0.8010     0.0110 h4         1 5J9       0.194000
@<TRIPOS>BOND
     1    25    24 1
     2    24    23 1
     3    12    11 1
     4    10    11 2
     5    10     9 1
     6    50     9 2
     7    11    13 1
     8     9    15 1
     9    23    20 1
    10    23    26 1
    11    20    19 1
    12    20    21 1
    13    26    27 1
    14    13    14 2
    15     2    19 1
    16     2     6 2
    17    19    18 1
    18    15    14 1
    19    15    16 1
    20    21    27 1
    21    21    22 1
    22     6    16 1
    23     6    17 1
    24    18    17 2
    25    27    28 1
    26    28     5 1
    27    28     1 1
    28     5    29 2
    29     8     1 ar
    30     8    30 ar
    31     1     3 ar
    32    30     7 ar
    33    29     3 1
    34     3     4 ar
    35     7     4 ar
    36     4    31 1
    37     2    32 1
    38     5    33 1
    39    12    34 1
    40    12    35 1
    41    13    49 1
    42    14    52 1
    43    16    36 1
    44    16    37 1
    45    20    38 1
    46    21    39 1
    47    22    40 1
    48    23    41 1
    49    24    42 1
    50    24    43 1
    51    25    44 1
    52    27    45 1
    53    30    46 1
    54    31    47 1
    55    31    48 1
    56    51    12 1
@<TRIPOS>SUBSTRUCTURE
     1 5J9         1 TEMP              0 ****  ****    0 ROOT
