@<TRIPOS>MOLECULE
5JA
   76    81     1     0     0
SMALL
bcc


@<TRIPOS>ATOM
      1 N3           0.0000     0.0000     0.0000 nb         1 5JA      -0.691000
      2 C5           1.2880    -0.0690     2.3830 ca         1 5JA       0.489200
      3 C7           1.3230     0.0000     0.0000 ca         1 5JA       0.595800
      4 C8           2.0230     0.0000     1.2160 ca         1 5JA      -0.391900
      5 C10          4.2100    -0.5930     0.1020 c3         1 5JA      -0.030700
      6 C13          3.5200    -0.2470    -1.1940 cc         1 5JA       0.383600
      7 C17         -6.5450     0.9670     3.8610 c3         1 5JA       0.137800
      8 C20         -0.6630    -0.1270    -2.6360 ca         1 5JA      -0.076000
      9 C21         -1.9170     0.1860    -3.1170 ca         1 5JA      -0.109000
     10 C22         -2.0770     1.2190    -4.0230 ca         1 5JA      -0.088000
     11 C24          0.2780     1.6500    -3.9730 ca         1 5JA      -0.076000
     12 C26          3.8920     1.6050     1.2160 c3         1 5JA      -0.002100
     13 C28         -2.2160    -0.1650     3.6170 cc         1 5JA      -0.349300
     14 C1           0.4470     0.6050    -3.0630 ca         1 5JA      -0.030000
     15 C2          -0.6650    -0.0520     1.1480 ca         1 5JA       0.702900
     16 N4          -2.0500    -0.0610     1.1270 nu         1 5JA      -0.342600
     17 N6          -0.0350    -0.0970     2.3120 nb         1 5JA      -0.694000
     18 C9           3.5180     0.1230     1.2600 c3         1 5JA       0.033600
     19 C11          1.7920     0.2830    -2.5430 cd         1 5JA      -0.101300
     20 C12          2.1250     0.0260    -1.2370 cc         1 5JA      -0.401800
     21 N14          3.9900    -0.1420    -2.3940 nd         1 5JA      -0.627800
     22 N15          2.9430     0.1840    -3.2710 na         1 5JA       0.474400
     23 N16         -7.8970     0.9320     4.4320 n3         1 5JA      -0.547600
     24 N19         -4.3920    -0.1920     3.8080 na         1 5JA       0.492400
     25 C23         -0.9820     1.9440    -4.4550 ca         1 5JA      -0.109000
     26 C25          3.0660     0.3860    -4.7170 c3         1 5JA       0.021600
     27 C27         -3.2360    -0.2090     4.5050 cd         1 5JA      -0.241300
     28 C29         -2.7680    -0.1140     2.3280 cc         1 5JA       0.452200
     29 N30         -4.0750    -0.1290     2.4450 nd         1 5JA      -0.702800
     30 C31         -8.6480    -0.2300     3.9360 c3         1 5JA       0.151300
     31 C32        -10.0200    -0.2740     4.6150 c3         1 5JA       0.149300
     32 N33        -10.7420     0.9740     4.3340 n3         1 5JA      -0.529600
     33 C34         -9.9910     2.1360     4.8290 c3         1 5JA       0.149300
     34 C35         -8.6190     2.1810     4.1510 c3         1 5JA       0.151300
     35 C36        -12.0940     0.9380     4.9060 c3         1 5JA       0.150800
     36 C37        -12.8990     2.1340     4.3880 c3         1 5JA       0.203400
     37 O38        -13.0810     2.0100     2.9760 os         1 5JA      -0.400600
     38 C39        -13.8230     3.0810     2.3910 c3         1 5JA       0.249700
     39 H1           1.7860    -0.1070     3.3450 h4         1 5JA      -0.016900
     40 H2           4.1130    -1.6600     0.2600 hc         1 5JA       0.033200
     41 H3           5.2300    -0.2340     0.0460 hc         1 5JA       0.033200
     42 H4          -6.6080     0.9190     2.7800 h1         1 5JA       0.026700
     43 H5          -6.0530     1.8870     4.1530 h1         1 5JA       0.026700
     44 H6          -0.5390    -0.9370    -1.9280 ha         1 5JA       0.118500
     45 H7          -2.7800    -0.3800    -2.7850 ha         1 5JA       0.103500
     46 H8          -3.0640     1.4570    -4.4010 ha         1 5JA       0.102000
     47 H9           1.1350     2.2200    -4.3100 ha         1 5JA       0.118500
     48 H10          3.4200     2.0720     0.3600 hc         1 5JA       0.008367
     49 H11          4.9670     1.7040     1.1340 hc         1 5JA       0.008367
     50 H12          3.5530     2.0900     2.1240 hc         1 5JA       0.008367
     51 H13         -1.1600    -0.1650     3.8590 ha         1 5JA       0.189000
     52 H14         -2.5370    -0.0460     0.2530 hn         1 5JA       0.292800
     53 H15          3.8720    -0.3030     2.1900 hc         1 5JA       0.026700
     54 H17         -6.2320    -1.1470     4.0850 h1         1 5JA       0.036700
     55 H18         -5.6780    -0.1800     5.4580 h1         1 5JA       0.036700
     56 H19         -1.1140     2.7530    -5.1640 ha         1 5JA       0.103500
     57 H20          3.0070     1.4440    -4.9400 h1         1 5JA       0.024033
     58 H21          4.0190    -0.0020    -5.0560 h1         1 5JA       0.024033
     59 H22          2.2630    -0.1350    -5.2240 h1         1 5JA       0.024033
     60 H23         -3.1420    -0.2530     5.5830 h4         1 5JA       0.143000
     61 H24         -8.7790    -0.1450     2.8650 h1         1 5JA       0.017950
     62 H25         -8.1020    -1.1370     4.1680 h1         1 5JA       0.017950
     63 H26        -10.5860    -1.1130     4.2280 h1         1 5JA       0.014950
     64 H27         -9.8890    -0.3820     5.6850 h1         1 5JA       0.014950
     65 H29        -10.5370     3.0430     4.5970 h1         1 5JA       0.014950
     66 H30         -9.8610     2.0510     5.9010 h1         1 5JA       0.014950
     67 H31         -8.7490     2.2890     3.0810 h1         1 5JA       0.017950
     68 H32         -8.0530     3.0190     4.5390 h1         1 5JA       0.017950
     69 H33        -12.5860     0.0190     4.6130 h1         1 5JA       0.015700
     70 H34        -12.0320     0.9860     5.9860 h1         1 5JA       0.015700
     71 H35        -13.8650     2.1580     4.8760 h1         1 5JA      -0.007800
     72 H36        -12.3630     3.0500     4.6040 h1         1 5JA      -0.007800
     73 H37        -13.3640     4.0260     2.6550 h1         1 5JA      -0.014633
     74 H38        -13.8270     2.9710     1.3130 h1         1 5JA      -0.014633
     75 H39        -14.8410     3.0590     2.7600 h1         1 5JA      -0.014633
     76 C18         -5.7410    -0.2270     4.3780 c3         1 5JA      -0.015700
@<TRIPOS>BOND
     1     1     3 ar  
     2     1    15 ar  
     3     2     4 ar  
     4     2    17 ar  
     5     2    39 1   
     6     3     4 ar  
     7     3    20 1   
     8     4    18 1   
     9     5     6 1   
    10     5    18 1   
    11     5    40 1   
    12     5    41 1   
    13     6    20 1   
    14     6    21 2   
    15     7    23 1   
    16     7    42 1   
    17     7    43 1   
    18     7    76 1   
    19     8     9 ar  
    20     8    14 ar  
    21     8    44 1   
    22     9    10 ar  
    23     9    45 1   
    24    10    25 ar  
    25    10    46 1   
    26    11    14 ar  
    27    11    25 ar  
    28    11    47 1   
    29    12    18 1   
    30    12    48 1   
    31    12    49 1   
    32    12    50 1   
    33    13    27 2   
    34    13    28 1   
    35    13    51 1   
    36    14    19 1   
    37    15    16 1   
    38    15    17 ar  
    39    16    28 1   
    40    16    52 1   
    41    18    53 1   
    42    19    20 2   
    43    19    22 1   
    44    21    22 1   
    45    22    26 1   
    46    23    30 1   
    47    23    34 1   
    48    24    27 1   
    49    24    29 1   
    50    24    76 1   
    51    25    56 1   
    52    26    57 1   
    53    26    58 1   
    54    26    59 1   
    55    27    60 1   
    56    28    29 2   
    57    30    31 1   
    58    30    61 1   
    59    30    62 1   
    60    31    32 1   
    61    31    63 1   
    62    31    64 1   
    63    32    33 1   
    64    32    35 1   
    65    33    34 1   
    66    33    65 1   
    67    33    66 1   
    68    34    67 1   
    69    34    68 1   
    70    35    36 1   
    71    35    69 1   
    72    35    70 1   
    73    36    37 1   
    74    36    71 1   
    75    36    72 1   
    76    37    38 1   
    77    38    73 1   
    78    38    74 1   
    79    38    75 1   
    80    54    76 1   
    81    55    76 1   
@<TRIPOS>SUBSTRUCTURE
     1 5JA         1 TEMP              0 ****  ****    0 ROOT
