@<TRIPOS>MOLECULE
molecule
   13    13     1     0     0
SMALL
bcc


@<TRIPOS>ATOM
      1 Cl1          0.0000     0.0000     0.0000 cl         1 5JC      -0.082400
      2 CAI          1.7360     0.0000     0.0000 ca         1 5JC       0.010400
      3 CAF          2.4280     0.0000     1.1980 ca         1 5JC      -0.106000
      4 CAH          3.8120     0.0010     1.1980 ca         1 5JC       0.025400
      5 Cl2          4.6780     0.0000     2.7020 cl         1 5JC      -0.095400
      6 CAE          4.5050     0.0010     0.0000 ca         1 5JC      -0.109000
      7 CAD          3.8190     0.0010    -1.1980 ca         1 5JC      -0.140000
      8 CAG          2.4310    -0.0050    -1.2010 ca         1 5JC       0.114100
      9 OAA          1.7540    -0.0110    -2.3800 oh         1 5JC      -0.508100
     10 H1           1.8870     0.0120     2.1360 ha         1 5JC       0.161000
     11 H2           5.5890     0.0040     0.0030 ha         1 5JC       0.151000
     12 H3           4.3630    -0.0010    -2.1340 ha         1 5JC       0.153000
     13 H4           1.6750    -0.8970    -2.6930 ho         1 5JC       0.426000
@<TRIPOS>BOND
     1     1     2 1   
     2     9     8 1   
     3     2     8 ar  
     4     2     3 ar  
     5     8     7 ar  
     6     3     4 ar  
     7     7     6 ar  
     8     4     6 ar  
     9     4     5 1   
    10     3    10 1   
    11     6    11 1   
    12     7    12 1   
    13     9    13 1   
@<TRIPOS>SUBSTRUCTURE
     1 5JC         1 TEMP              0 ****  ****    0 ROOT
