@<TRIPOS>MOLECULE
molecule
   13    13     1     0     0
SMALL
bcc


@<TRIPOS>ATOM
      1 CAF          0.0000     0.0000     0.0000 ca         1 5JD      -0.143000
      2 CAI          1.3820     0.0000     0.0000 ca         1 5JD       0.043400
      3 Cl1          2.2500     0.0020    -1.5040 cl         1 5JD      -0.081400
      4 CAH          2.0750     0.0000     1.1980 ca         1 5JD       0.020400
      5 Cl2          3.8110     0.0010     1.1970 cl         1 5JD      -0.084400
      6 CAE          1.3860    -0.0020     2.3980 ca         1 5JD      -0.101000
      7 CAD          0.0040    -0.0020     2.4020 ca         1 5JD      -0.144000
      8 CAG         -0.6930     0.0040     1.2010 ca         1 5JD       0.116100
      9 OAA         -2.0520     0.0040     1.2040 oh         1 5JD      -0.515100
     10 H1          -0.5420     0.0050    -0.9380 ha         1 5JD       0.160000
     11 H2           1.9290    -0.0040     3.3350 ha         1 5JD       0.154000
     12 H3          -0.5350    -0.0010     3.3410 ha         1 5JD       0.151000
     13 H4          -2.3670     0.8920     1.1620 ho         1 5JD       0.425000
@<TRIPOS>BOND
     1     9     8 1
     2     8     1 ar
     3     8     7 ar
     4     1     2 ar
     5     7     6 ar
     6     2     3 1
     7     2     4 ar
     8     6     4 ar
     9     4     5 1
    10     1    10 1
    11     6    11 1
    12     7    12 1
    13     9    13 1
@<TRIPOS>SUBSTRUCTURE
     1 5JD         1 TEMP              0 ****  ****    0 ROOT
