@<TRIPOS>MOLECULE
molecule
   22    24     1     0     0
SMALL
bcc


@<TRIPOS>ATOM
      1 C1           0.0000     0.0000     0.0000 cc         1 5JE       0.513300
      2 N2          -0.7980    -0.0010    -1.1380 na         1 5JE      -0.185000
      3 N3           1.3650     0.0000     0.0000 na         1 5JE      -0.271300
      4 N4          -0.4450     0.0060     1.2290 nd         1 5JE      -0.607100
      5 C5          -2.1710    -0.0010    -1.1730 cc         1 5JE      -0.218600
      6 C6          -0.3680     0.0050    -2.4290 cc         1 5JE       0.391400
      7 C7           1.7760     0.0000     1.3210 ca         1 5JE      -0.084200
      8 C8           0.6020     0.0050     2.0940 ca         1 5JE       0.107400
      9 C9          -2.5270    -0.0010    -2.4700 cd         1 5JE       0.306200
     10 N10         -1.4100     0.0030    -3.2130 nd         1 5JE      -0.673000
     11 C11          3.0150     0.0010     1.9430 ca         1 5JE      -0.125000
     12 C12          0.6980     0.0090     3.4880 ca         1 5JE      -0.071000
     13 C13          3.0920     0.0010     3.3200 ca         1 5JE      -0.110000
     14 C14          1.9360     0.0060     4.0880 ca         1 5JE      -0.139000
     15 H3           1.9530    -0.1310    -0.7990 hn         1 5JE       0.306700
     16 H5          -2.8380    -0.0030    -0.3200 h4         1 5JE       0.197000
     17 H6           0.6670     0.0080    -2.7510 h5         1 5JE       0.062100
     18 H9          -3.5420    -0.0020    -2.8500 h4         1 5JE       0.050100
     19 H11          3.9210    -0.0030     1.3490 ha         1 5JE       0.130000
     20 H12         -0.2000     0.0130     4.0940 ha         1 5JE       0.146000
     21 H13          4.0600    -0.0020     3.8050 ha         1 5JE       0.137000
     22 H14          2.0100     0.0060     5.1690 ha         1 5JE       0.137000
@<TRIPOS>BOND
     1     1     2 1
     2     1     3 1
     3     1     4 2
     4     2     5 1
     5     2     6 1
     6     3     7 1
     7     4     8 1
     8     5     9 2
     9     6    10 2
    10     7     8 ar
    11     7    11 ar
    12     8    12 ar
    13     9    10 1
    14    11    13 ar
    15    12    14 ar
    16    13    14 ar
    17     3    15 1
    18     5    16 1
    19     6    17 1
    20     9    18 1
    21    11    19 1
    22    12    20 1
    23    13    21 1
    24    14    22 1
@<TRIPOS>SUBSTRUCTURE
     1 5JE         1 TEMP              0 ****  ****    0 ROOT
