@<TRIPOS>MOLECULE
molecule
   13    13     1     0     0
SMALL
bcc


@<TRIPOS>ATOM
      1 Cl1          0.0000     0.0000     0.0000 cl         1 5JF      -0.071400
      2 CAI          1.7370     0.0000     0.0000 ca         1 5JF       0.003400
      3 CAH          2.4300     0.0000     1.1970 ca         1 5JF       0.041400
      4 Cl2          1.5630    -0.0000     2.7010 cl         1 5JF      -0.081400
      5 CAF          3.8140     0.0000     1.1950 ca         1 5JF      -0.123000
      6 CAD          4.5050     0.0010    -0.0000 ca         1 5JF      -0.107000
      7 CAE          3.8180     0.0020    -1.1980 ca         1 5JF      -0.146000
      8 CAG          2.4310    -0.0050    -1.2020 ca         1 5JF       0.121100
      9 OAA          1.7530    -0.0040    -2.3810 oh         1 5JF      -0.507100
     10 H1           4.3550    -0.0000     2.1340 ha         1 5JF       0.151000
     11 H2           5.5890     0.0040     0.0020 ha         1 5JF       0.144000
     12 H3           4.3630     0.0010    -2.1350 ha         1 5JF       0.150000
     13 H4           1.6400    -0.8910    -2.6800 ho         1 5JF       0.426000
@<TRIPOS>BOND
     1     6     5 ar  
     2     6     7 ar  
     3     5     3 ar  
     4     7     8 ar  
     5     3     4 1   
     6     3     2 ar  
     7     8     2 ar  
     8     8     9 1   
     9     2     1 1   
    10     5    10 1   
    11     6    11 1   
    12     7    12 1   
    13     9    13 1   
@<TRIPOS>SUBSTRUCTURE
     1 5JF         1 TEMP              0 ****  ****    0 ROOT
