@<TRIPOS>MOLECULE
5JG
   52    55     1     0     0
SMALL
bcc


@<TRIPOS>ATOM
      1 C1           0.0000     0.0000     0.0000 c3         1 5JG       0.238700
      2 C3           2.0460     0.0000     1.2120 ca         1 5JG       0.110100
      3 C7           4.0720     0.0000     2.5190 ca         1 5JG      -0.210000
      4 C8           3.4380     0.0000     1.2850 ca         1 5JG       0.152100
      5 C10          5.5970    -0.0010     0.2920 c3         1 5JG       0.239700
      6 C12          1.1270    -0.0090     4.8550 cc         1 5JG       0.272400
      7 C14          0.5730    -0.0120     7.0000 ca         1 5JG       0.195800
      8 C15         -0.5820    -0.0180     6.2020 ca         1 5JG      -0.040900
      9 C19         -0.6930    -0.0220     8.9330 ca         1 5JG       0.427200
     10 C22         -3.8200    -1.2260     6.3740 c3         1 5JG       0.127800
     11 C24         -5.8780    -2.4970     5.7440 c3         1 5JG      -0.024900
     12 N26         -7.9820    -1.2890     5.4020 n7         1 5JG      -0.579200
     13 C27         -7.2720    -0.0250     5.1670 c3         1 5JG       0.148800
     14 O2           1.4290     0.0000     0.0000 os         1 5JG      -0.290900
     15 C4           1.2930    -0.0050     2.3700 ca         1 5JG      -0.118000
     16 C5           1.9280    -0.0050     3.6140 ca         1 5JG      -0.121900
     17 C6           3.3250     0.0000     3.6810 ca         1 5JG       0.095900
     18 O9           4.1760    -0.0010     0.1450 os         1 5JG      -0.285900
     19 F11          3.9440    -0.0000     4.8830 f          1 5JG      -0.131900
     20 N13          1.6400    -0.0040     6.1260 na         1 5JG       0.166000
     21 N16         -0.1830    -0.0140     4.9090 nd         1 5JG      -0.492100
     22 C17         -1.8410    -0.0270     6.8290 ca         1 5JG       0.124600
     23 C18         -1.8790    -0.0290     8.2200 ca         1 5JG      -0.228900
     24 N20          0.4760    -0.0150     8.3220 nb         1 5JG      -0.560000
     25 Cl          -3.4010    -0.0390     9.0540 cl         1 5JG       0.005600
     26 N21         -3.0150    -0.0330     6.0810 nu         1 5JG      -0.472600
     27 C23         -5.0990    -1.1970     5.5340 c3         1 5JG      -0.055700
     28 C25         -7.1850    -2.4370     4.9490 c3         1 5JG       0.148800
     29 C28         -5.9680    -0.0130     5.9670 c3         1 5JG      -0.024900
     30 H1          -0.3610     0.8830     0.5120 h1         1 5JG       0.001367
     31 H2          -0.3610     0.0020    -1.0210 h1         1 5JG       0.001367
     32 H3          -0.3610    -0.8860     0.5090 h1         1 5JG       0.001367
     33 H4           5.1540     0.0020     2.5710 ha         1 5JG       0.140000
     34 H5           5.9040    -0.8850     0.8380 h1         1 5JG      -0.000300
     35 H6           5.9040     0.8840     0.8360 h1         1 5JG      -0.000300
     36 H7           6.0620    -0.0030    -0.6870 h1         1 5JG      -0.000300
     37 H8          -0.7250    -0.0240    10.0160 h4         1 5JG      -0.010900
     38 H9          -3.2500    -2.1150     6.1330 h1         1 5JG       0.024700
     39 H10         -4.0790    -1.2370     7.4260 h1         1 5JG       0.024700
     40 H11         -5.2840    -3.3340     5.3980 hc         1 5JG       0.021950
     41 H12         -6.1020    -2.6170     6.7970 hc         1 5JG       0.021950
     42 H13         -8.8560    -1.2760     4.9140 hn         1 5JG       0.249800
     43 H15         -7.8960     0.8020     5.4840 h1         1 5JG       0.004450
     44 H16         -7.0470     0.0710     4.1110 h1         1 5JG       0.004450
     45 H17          0.2110    -0.0050     2.3130 ha         1 5JG       0.153000
     46 H18          2.6010     0.1310     6.3720 hn         1 5JG       0.154700
     47 H20         -3.4650     0.8310     5.8500 hn         1 5JG       0.304800
     48 H21         -4.8460    -1.0940     4.4860 hc         1 5JG       0.036700
     49 H22         -7.7460    -3.3500     5.1100 h1         1 5JG       0.004450
     50 H23         -6.9600    -2.3260     3.8950 h1         1 5JG       0.004450
     51 H24         -5.4380     0.9130     5.7780 hc         1 5JG       0.021950
     52 H25         -6.1930    -0.0980     7.0240 hc         1 5JG       0.021950
@<TRIPOS>BOND
     1     1    14 1   
     2     1    30 1   
     3     1    31 1   
     4     1    32 1   
     5     2     4 ar  
     6     2    14 1   
     7     2    15 ar  
     8     3     4 ar  
     9     3    17 ar  
    10     3    33 1   
    11     4    18 1   
    12     5    18 1   
    13     5    34 1   
    14     5    35 1   
    15     5    36 1   
    16     6    16 1   
    17     6    20 1   
    18     6    21 2   
    19     7     8 ar  
    20     7    20 1   
    21     7    24 ar  
    22     8    21 1   
    23     8    22 ar  
    24     9    23 ar  
    25     9    24 ar  
    26     9    37 1   
    27    10    26 1   
    28    10    27 1   
    29    10    38 1   
    30    10    39 1   
    31    11    27 1   
    32    11    28 1   
    33    11    40 1   
    34    11    41 1   
    35    12    13 1   
    36    12    28 1   
    37    12    42 1   
    38    13    29 1   
    39    13    43 1   
    40    13    44 1   
    41    15    16 ar  
    42    15    45 1   
    43    16    17 ar  
    44    17    19 1   
    45    20    46 1   
    46    22    23 ar  
    47    22    26 1   
    48    23    25 1   
    49    26    47 1   
    50    27    29 1   
    51    27    48 1   
    52    28    49 1   
    53    28    50 1   
    54    29    51 1   
    55    29    52 1   
@<TRIPOS>SUBSTRUCTURE
     1 5JG         1 TEMP              0 ****  ****    0 ROOT
