@<TRIPOS>MOLECULE
molecule
   42    44     1     0     0
SMALL
bcc


@<TRIPOS>ATOM
      1 C1           0.0000     0.0000     0.0000 ca         1 5JJ       0.460200
      2 C2           1.3880     0.0000     0.0000 ca         1 5JJ      -0.356300
      3 C3           2.0740     0.0000     1.2040 ca         1 5JJ       0.234600
      4 C12          0.9920     0.0050     7.2100 ca         1 5JJ       0.154600
      5 C13          0.6030     1.2070     7.7880 ca         1 5JJ       0.033900
      6 C14         -0.1690     1.2050     8.9350 ca         1 5JJ      -0.123500
      7 C15         -0.5550     0.0070     9.5070 ca         1 5JJ      -0.109000
      8 C16         -0.1700    -1.1920     8.9360 ca         1 5JJ      -0.123500
      9 C17          0.5970    -1.1970     7.7860 ca         1 5JJ       0.033900
     10 C20          3.2340     0.0030     6.1530 c3         1 5JJ       0.337900
     11 C21          3.7230    -1.3850     6.1870 c1         1 5JJ      -0.181100
     12 C22          4.1270    -2.4870     6.2290 c1         1 5JJ      -0.116100
     13 C23          4.1390    -4.0150     6.2710 c3         1 5JJ       0.012700
     14 C25          5.6420    -4.3960     6.2620 c3         1 5JJ      -0.092100
     15 C4           1.3150     0.0020     2.4000 ca         1 5JJ      -0.162300
     16 C5          -0.0980     0.0020     2.3130 ca         1 5JJ       0.418600
     17 N6          -0.6940     0.0070     1.1140 nb         1 5JJ      -0.722000
     18 C7           1.9360     0.0030     3.6550 ca         1 5JJ      -0.190000
     19 C8           1.1590     0.0040     4.7960 ca         1 5JJ       0.196600
     20 C9          -0.2360     0.0040     4.7050 ca         1 5JJ      -0.154000
     21 C10         -0.8580     0.0040     3.4950 ca         1 5JJ      -0.137300
     22 N11          1.7730     0.0040     6.0520 nh         1 5JJ      -0.606400
     23 Cl1          1.0790    -2.7040     7.0690 cl         1 5JJ      -0.080400
     24 Cl2          1.0870     2.7120     7.0710 cl         1 5JJ      -0.080400
     25 N24          3.4610     0.0000     1.2380 nv         1 5JJ      -0.904200
     26 H1          -0.5410     0.0000    -0.9380 h4         1 5JJ       0.017100
     27 H2           1.9300    -0.0050    -0.9380 ha         1 5JJ       0.132000
     28 H3          -0.4720     2.1420     9.3850 ha         1 5JJ       0.151000
     29 H4          -1.1600     0.0060    10.4060 ha         1 5JJ       0.145000
     30 H5          -0.4740    -2.1290     9.3870 ha         1 5JJ       0.151000
     31 H6           3.5330     0.5130     7.0600 h1         1 5JJ       0.067700
     32 H7           3.6550     0.5130     5.2950 h1         1 5JJ       0.067700
     33 H8           3.6420    -4.4200     5.3970 hc         1 5JJ       0.062200
     34 H9           3.6640    -4.3720     7.1760 hc         1 5JJ       0.062200
     35 H10          5.7410    -5.4740     6.3040 hc         1 5JJ       0.038033
     36 H11          6.1030    -4.0270     5.3550 hc         1 5JJ       0.038033
     37 H12          6.1310    -3.9550     7.1220 hc         1 5JJ       0.038033
     38 H13          3.0170     0.0110     3.7250 ha         1 5JJ       0.129000
     39 H14         -0.8370     0.0050     5.6050 ha         1 5JJ       0.138000
     40 H15         -1.9400     0.0050     3.4440 ha         1 5JJ       0.150000
     41 H16          3.9820    -0.0660     0.3860 hn         1 5JJ       0.433800
     42 H17          3.9410     0.0810     2.1120 hn         1 5JJ       0.433800
@<TRIPOS>BOND
     1    23     9 1   
     2     8     9 ar  
     3     8     7 ar  
     4     9     4 ar  
     5     7     6 ar  
     6     4    22 1   
     7     4     5 ar  
     8    10    22 1   
     9    10    11 1   
    10    22    19 1   
    11     6     5 ar  
    12    20    19 ar  
    13    20    21 ar  
    14     5    24 1   
    15    19    18 ar  
    16    21    16 ar  
    17    18    15 ar  
    18    11    12 3   
    19    16    15 ar  
    20    16    17 ar  
    21    15     3 ar  
    22    17     1 ar  
    23    12    13 1   
    24     3    25 1   
    25     3     2 ar  
    26     1     2 ar  
    27    13    14 1   
    28     1    26 1   
    29     2    27 1   
    30     6    28 1   
    31     7    29 1   
    32     8    30 1   
    33    10    31 1   
    34    10    32 1   
    35    13    33 1   
    36    13    34 1   
    37    14    35 1   
    38    14    36 1   
    39    14    37 1   
    40    18    38 1   
    41    20    39 1   
    42    21    40 1   
    43    25    41 1   
    44    25    42 1   
@<TRIPOS>SUBSTRUCTURE
     1 5JJ         1 TEMP              0 ****  ****    0 ROOT
