@<TRIPOS>MOLECULE
molecule
   75    78     1     0     0
SMALL
bcc


@<TRIPOS>ATOM
      1 C18          1.5300     0.0000     0.0000 c3         1 5JK      -0.101100
      2 C13          0.0000     0.0000     0.0000 c3         1 5JK      -0.065000
      3 C12         -0.5140     0.0000     1.4280 c3         1 5JK      -0.066400
      4 C11          0.1400    -1.1910     2.1450 c3         1 5JK      -0.081400
      5 C9          -0.1620    -2.5110     1.4390 c3         1 5JK      -0.050700
      6 C10          0.5690    -3.6460     2.1370 c3         1 5JK      -0.016800
      7 C19          1.9770    -3.1600     2.4900 c3         1 5JK      -0.089100
      8 C1          -0.1490    -4.0090     3.4400 c3         1 5JK      -0.066400
      9 C2           0.5900    -5.1630     4.1220 c3         1 5JK      -0.095400
     10 C3           0.5500    -6.4020     3.2250 c3         1 5JK       0.149100
     11 O1           1.1640    -7.5000     3.9020 oh         1 5JK      -0.607800
     12 C4           1.3080    -6.1140     1.9250 c3         1 5JK      -0.054200
     13 C5           0.7120    -4.8720     1.2860 c2         1 5JK      -0.075400
     14 C6           0.3600    -4.9310     0.0350 c2         1 5JK      -0.217200
     15 C7          -0.2460    -3.7720    -0.7000 c3         1 5JK       0.190300
     16 O2          -1.6700    -3.8590    -0.6390 oh         1 5JK      -0.599800
     17 C8           0.2160    -2.4630    -0.0480 c3         1 5JK      -0.050700
     18 C14         -0.5270    -1.2960    -0.6730 c3         1 5JK      -0.063700
     19 C15         -0.2210    -1.0250    -2.1500 c3         1 5JK      -0.077400
     20 C16         -0.6160     0.4680    -2.3180 c3         1 5JK      -0.080400
     21 C17         -0.5180     1.1100    -0.9080 c3         1 5JK      -0.054700
     22 C20          0.4560     2.2890    -0.9290 c3         1 5JK      -0.073700
     23 C21          0.5660     2.8850     0.4760 c3         1 5JK      -0.095100
     24 C22         -0.0560     3.3580    -1.8970 c3         1 5JK      -0.080400
     25 C23          0.9770     4.4790    -2.0120 c3         1 5JK      -0.085400
     26 C24          0.4650     5.5470    -2.9810 c3         1 5JK      -0.076400
     27 C25          1.4990     6.6690    -3.0970 c3         1 5JK      -0.077700
     28 C27          2.7760     6.1220    -3.7370 c3         1 5JK      -0.087600
     29 C26          0.9360     7.7950    -3.9660 c3         1 5JK      -0.087600
     30 H1           1.8910     0.3880     0.9450 hc         1 5JK       0.040700
     31 H2           1.8910     0.6240    -0.8080 hc         1 5JK       0.040700
     32 H3           1.8910    -1.0120    -0.1370 hc         1 5JK       0.040700
     33 H4          -0.2350     0.9240     1.9190 hc         1 5JK       0.045700
     34 H5          -1.5910    -0.1150     1.4300 hc         1 5JK       0.045700
     35 H6           1.2120    -1.0420     2.1680 hc         1 5JK       0.044200
     36 H7          -0.2370    -1.2410     3.1590 hc         1 5JK       0.044200
     37 H8          -1.2260    -2.6980     1.5120 hc         1 5JK       0.069700
     38 H9           2.5560    -3.9870     2.8840 hc         1 5JK       0.038700
     39 H10          1.9130    -2.3770     3.2360 hc         1 5JK       0.038700
     40 H11          2.4600    -2.7730     1.6010 hc         1 5JK       0.038700
     41 H12         -0.1590    -3.1490     4.0980 hc         1 5JK       0.048700
     42 H13         -1.1650    -4.3130     3.2180 hc         1 5JK       0.048700
     43 H14          0.1100    -5.3890     5.0660 hc         1 5JK       0.052700
     44 H15          1.6200    -4.8780     4.2940 hc         1 5JK       0.052700
     45 H16         -0.4800    -6.6440     2.9940 h1         1 5JK       0.034700
     46 H17          0.5300    -8.1870     4.0250 ho         1 5JK       0.401000
     47 H18          2.3550    -5.9430     2.1450 hc         1 5JK       0.058200
     48 H19          1.2040    -6.9560     1.2510 hc         1 5JK       0.058200
     49 H21          0.5120    -5.8600    -0.5010 ha         1 5JK       0.119000
     50 H23          0.0780    -3.7920    -1.7340 h1         1 5JK       0.034700
     51 H24         -1.9730    -4.4940    -1.2670 ho         1 5JK       0.399000
     52 H25          1.2860    -2.3380    -0.1640 hc         1 5JK       0.073700
     53 H26         -1.5950    -1.3960    -0.5170 hc         1 5JK       0.076700
     54 H27         -0.8280    -1.6550    -2.7880 hc         1 5JK       0.042200
     55 H28          0.8340    -1.1660    -2.3520 hc         1 5JK       0.042200
     56 H29          0.0720     0.9590    -2.9970 hc         1 5JK       0.043200
     57 H30         -1.6310     0.5430    -2.6900 hc         1 5JK       0.043200
     58 H31         -1.4980     1.4330    -0.5790 hc         1 5JK       0.055700
     59 H32          1.4310     1.9460    -1.2520 hc         1 5JK       0.060700
     60 H33          1.4820     2.5440     0.9430 hc         1 5JK       0.035700
     61 H34         -0.2820     2.5670     1.0710 hc         1 5JK       0.035700
     62 H35          0.5750     3.9660     0.4100 hc         1 5JK       0.035700
     63 H36         -0.2170     2.9140    -2.8720 hc         1 5JK       0.042200
     64 H37         -0.9900     3.7640    -1.5270 hc         1 5JK       0.042200
     65 H38          1.9110     4.0740    -2.3830 hc         1 5JK       0.043200
     66 H39          1.1380     4.9230    -1.0370 hc         1 5JK       0.043200
     67 H40          0.3030     5.1030    -3.9550 hc         1 5JK       0.041200
     68 H41         -0.4680     5.9530    -2.6100 hc         1 5JK       0.041200
     69 H42          1.7270     7.0540    -2.1110 hc         1 5JK       0.048700
     70 H43          3.3410     6.9380    -4.1710 hc         1 5JK       0.033200
     71 H44          3.3760     5.6300    -2.9810 hc         1 5JK       0.033200
     72 H45          2.5160     5.4100    -4.5110 hc         1 5JK       0.033200
     73 H46          0.0140     8.1600    -3.5300 hc         1 5JK       0.033200
     74 H47          1.6540     8.6030    -4.0210 hc         1 5JK       0.033200
     75 H48          0.7390     7.4180    -4.9630 hc         1 5JK       0.033200
@<TRIPOS>BOND
     1    16    15 1
     2    11    10 1
     3    12    10 1
     4    12    13 1
     5    14    15 1
     6    14    13 2
     7    15    17 1
     8    10     9 1
     9    13     6 1
    10    19    18 1
    11    19    20 1
    12    17    18 1
    13    17     5 1
    14    18     2 1
    15     9     8 1
    16     5     6 1
    17     5     4 1
    18    20    21 1
    19     6     8 1
    20     6     7 1
    21    21     2 1
    22    21    22 1
    23     2     3 1
    24     2     1 1
    25     4     3 1
    26    24    22 1
    27    24    25 1
    28    26    25 1
    29    26    27 1
    30    28    27 1
    31    22    23 1
    32    27    29 1
    33     1    30 1
    34     1    31 1
    35     1    32 1
    36     3    33 1
    37     3    34 1
    38     4    35 1
    39     4    36 1
    40     5    37 1
    41     7    38 1
    42     7    39 1
    43     7    40 1
    44     8    41 1
    45     8    42 1
    46     9    43 1
    47     9    44 1
    48    10    45 1
    49    11    46 1
    50    12    47 1
    51    12    48 1
    52    14    49 1
    53    15    50 1
    54    16    51 1
    55    17    52 1
    56    18    53 1
    57    19    54 1
    58    19    55 1
    59    20    56 1
    60    20    57 1
    61    21    58 1
    62    22    59 1
    63    23    60 1
    64    23    61 1
    65    23    62 1
    66    24    63 1
    67    24    64 1
    68    25    65 1
    69    25    66 1
    70    26    67 1
    71    26    68 1
    72    27    69 1
    73    28    70 1
    74    28    71 1
    75    28    72 1
    76    29    73 1
    77    29    74 1
    78    29    75 1
@<TRIPOS>SUBSTRUCTURE
     1 5JK         1 TEMP              0 ****  ****    0 ROOT
