@<TRIPOS>MOLECULE
molecule
   16    17     1     0     0
SMALL
bcc


@<TRIPOS>ATOM
      1 C4           0.0000     0.0000     0.0000 cc         1 5JL       0.082200
      2 C5           1.3680     0.0000     0.0000 cd         1 5JL      -0.217600
      3 C6           2.0580     0.0000     1.2300 c          1 5JL       0.718700
      4 C8           0.6730     0.0030    -2.1050 cs         1 5JL       0.505400
      5 N1           1.3530    -0.0010     2.3810 ns         1 5JL      -0.488500
      6 N3          -0.6730     0.0030     1.2000 ns         1 5JL      -0.368100
      7 O6           3.2760    -0.0000     1.2530 o          1 5JL      -0.584500
      8 N7           1.7800     0.0020    -1.3360 ns         1 5JL      -0.293100
      9 S8           0.6490     0.0040    -3.8170 s          1 5JL      -0.547400
     10 N9          -0.4130     0.0010    -1.3070 ns         1 5JL      -0.340100
     11 C2           0.0080    -0.0010     2.3610 cs         1 5JL       0.578400
     12 S2          -0.8530    -0.0030     3.8400 s          1 5JL      -0.563400
     13 H1           1.8360    -0.0040     3.2580 hn         1 5JL       0.394500
     14 H2          -1.6740     0.0030     1.2100 hn         1 5JL       0.381500
     15 H3           2.5810     0.5350    -1.6120 hn         1 5JL       0.376500
     16 H4          -1.2300    -0.5120    -1.5740 hn         1 5JL       0.365500
@<TRIPOS>BOND
     1     7     3 2   
     2     8     2 1   
     3     8     4 1   
     4     3     2 1   
     5     3     5 1   
     6     9     4 2   
     7     2     1 2   
     8     4    10 1   
     9     5    11 1   
    10     1    10 1   
    11     1     6 1   
    12    11     6 1   
    13    11    12 2   
    14     5    13 1   
    15     6    14 1   
    16     8    15 1   
    17    10    16 1   
@<TRIPOS>SUBSTRUCTURE
     1 5JL         1 TEMP              0 ****  ****    0 ROOT
