@<TRIPOS>MOLECULE
molecule
   57    60     1     0     0
SMALL
bcc


@<TRIPOS>ATOM
      1 N14          0.0000     0.0000     0.0000 ns         1 5JM      -0.458100
      2 C18          4.1660     0.0000     0.0000 ca         1 5JM      -0.106600
      3 C17          3.4650     0.0000     1.2100 ca         1 5JM      -0.089500
      4 C16          2.0880     0.0010     1.2060 ca         1 5JM      -0.168000
      5 C15          1.3950    -0.0000     0.0000 ca         1 5JM       0.002600
      6 C19          3.4650     0.0040    -1.2100 ca         1 5JM      -0.089500
      7 C20          2.0880    -0.0010    -1.2060 ca         1 5JM      -0.168000
      8 C21         -4.3410    -2.9460     3.1020 ce         1 5JM      -0.206200
      9 C22         -5.5290    -3.5810     3.0260 cf         1 5JM      -0.062200
     10 C23         -6.0200    -4.3630     4.1710 ca         1 5JM      -0.026800
     11 C24         -7.2000    -5.1160     4.0580 ca         1 5JM       0.008800
     12 C11         -6.4570     0.3740     1.7110 ca         1 5JM      -0.120500
     13 C12         -5.0850     0.4420     1.8760 ca         1 5JM      -0.116500
     14 C27         -5.7810    -5.0960     6.4470 ca         1 5JM       0.038400
     15 N2          -2.6670    -1.5350     2.0390 ns         1 5JM      -0.558900
     16 O3          -4.5180    -2.0950     0.9460 o          1 5JM      -0.601100
     17 C4          -2.1780    -0.7560     0.8980 c3         1 5JM       0.043700
     18 C5          -0.6740    -0.6730     0.9550 c          1 5JM       0.643100
     19 C6          -2.7690     0.6540     0.9530 c3         1 5JM      -0.047100
     20 C7          -4.2630     0.5800     0.7740 ca         1 5JM      -0.068300
     21 C8          -4.8120     0.6480    -0.4940 ca         1 5JM      -0.116500
     22 C9          -6.1820     0.5790    -0.6580 ca         1 5JM      -0.120500
     23 C10         -7.0040     0.4420     0.4440 ca         1 5JM      -0.124000
     24 O13         -0.0700    -1.2100     1.8580 o          1 5JM      -0.599100
     25 C25         -7.6530    -5.8490     5.1440 ca         1 5JM      -0.120000
     26 C26         -6.9460    -5.8380     6.3310 ca         1 5JM      -0.114000
     27 C28         -5.3120    -4.3640     5.3760 ca         1 5JM      -0.105000
     28 Cl2         -4.9020    -5.0980     7.9450 cl         1 5JM      -0.091400
     29 N30         -7.9150    -5.1270     2.8560 na         1 5JM      -0.006500
     30 C31         -8.3740    -6.2040     2.1830 cd         1 5JM       0.413400
     31 N32         -8.9900    -5.7640     1.1180 nc         1 5JM      -0.414000
     32 N33         -8.9520    -4.4800     1.0710 nc         1 5JM      -0.001000
     33 N34         -8.3170    -4.0160     2.0920 nd         1 5JM      -0.196800
     34 H47         -0.5000     0.4620    -0.7340 hn         1 5JM       0.312500
     35 H49          4.0040    -0.0010     2.1490 ha         1 5JM       0.154500
     36 H48          1.5450     0.0010     2.1430 ha         1 5JM       0.121000
     37 H50          4.0050     0.0040    -2.1490 ha         1 5JM       0.154500
     38 H51          1.5440     0.0020    -2.1430 ha         1 5JM       0.121000
     39 H52         -3.7480    -3.0120     4.0070 ha         1 5JM       0.129000
     40 H53         -6.1220    -3.5150     2.1220 ha         1 5JM       0.183000
     41 H45         -7.1010     0.2660     2.5750 ha         1 5JM       0.122500
     42 H46         -4.6550     0.3880     2.8690 ha         1 5JM       0.122500
     43 H38         -2.1070    -1.6180     2.8640 hn         1 5JM       0.336500
     44 H39         -2.4780    -1.2380    -0.0240 h1         1 5JM       0.096700
     45 H41         -2.3400     1.2560     0.1610 hc         1 5JM       0.057200
     46 H40         -2.5420     1.1040     1.9120 hc         1 5JM       0.057200
     47 H42         -4.1680     0.7560    -1.3580 ha         1 5JM       0.122500
     48 H43         -6.6120     0.6330    -1.6510 ha         1 5JM       0.122500
     49 H44         -8.0780     0.3890     0.3150 ha         1 5JM       0.124000
     50 H54         -8.5620    -6.4320     5.0620 ha         1 5JM       0.146000
     51 H55         -7.3060    -6.4110     7.1770 ha         1 5JM       0.152000
     52 H56         -4.4000    -3.7860     5.4710 ha         1 5JM       0.164000
     53 H57         -8.2550    -7.2410     2.4730 h5         1 5JM       0.081100
     54 O36          6.2470     0.0060    -1.0520 o          1 5JM      -0.836800
     55 O37          6.3140    -0.0030     1.1670 o          1 5JM      -0.836800
     56 C35          5.6400     0.0020    -0.0000 c          1 5JM       0.882200
     57 C1          -3.8530    -2.1680     1.9630 c          1 5JM       0.657300
@<TRIPOS>BOND
     1    31    30 2   
     2    31    32 1   
     3    30    29 1   
     4    32    33 2   
     5    29    33 1   
     6    29    11 1   
     7    25    11 ar  
     8    25    26 ar  
     9    11    10 ar  
    10    13    12 ar  
    11    13    20 ar  
    12    24    18 2   
    13    26    14 ar  
    14    19    20 1   
    15    19    17 1   
    16    10     9 1   
    17    10    27 ar  
    18    12    23 ar  
    19     9     8 2   
    20    20    21 ar  
    21    15    17 1   
    22    15    57 1   
    23    14    27 ar  
    24    14    28 1   
    25    18    17 1   
    26    18     1 1   
    27     4     3 ar  
    28     4     5 ar  
    29    23    22 ar  
    30     3     2 ar  
    31     8    57 1   
    32    57    16 2   
    33    21    22 ar  
    34     1     5 1   
    35     5     7 ar  
    36    54    56 1   
    37     2    56 1   
    38     2     6 ar  
    39    56    55 1   
    40     7     6 ar  
    41     1    34 1   
    42     3    35 1   
    43     4    36 1   
    44     6    37 1   
    45     7    38 1   
    46     8    39 1   
    47     9    40 1   
    48    12    41 1   
    49    13    42 1   
    50    15    43 1   
    51    17    44 1   
    52    19    45 1   
    53    19    46 1   
    54    21    47 1   
    55    22    48 1   
    56    23    49 1   
    57    25    50 1   
    58    26    51 1   
    59    27    52 1   
    60    30    53 1   
@<TRIPOS>SUBSTRUCTURE
     1 5JM         1 TEMP              0 ****  ****    0 ROOT
