@<TRIPOS>MOLECULE
5JM
   57    62     1     0     0
SMALL
bcc


@<TRIPOS>ATOM
      1 N14          0.0000     0.0000     0.0000 ns         1 5JM       0.157000
      2 C18          4.1660     0.0000     0.0000 ca         1 5JM      -0.076000
      3 C17          3.4650     0.0000     1.2100 ca         1 5JM      -0.062000
      4 C16          2.0880     0.0010     1.2060 ca         1 5JM      -0.143000
      5 C15          1.3950    -0.0000     0.0000 ca         1 5JM      -0.152000
      6 C19          3.4650     0.0040    -1.2100 ca         1 5JM      -0.062000
      7 C20          2.0880    -0.0010    -1.2060 ca         1 5JM      -0.143000
      8 C21         -4.3410    -2.9460     3.1020 c2         1 5JM      -0.160000
      9 C22         -5.5290    -3.5810     3.0260 c2         1 5JM       0.070000
     10 C23         -6.0200    -4.3630     4.1710 c3         1 5JM       0.077000
     11 C24         -7.2000    -5.1160     4.0580 c2         1 5JM      -0.208000
     12 C11         -6.4570     0.3740     1.7110 ca         1 5JM      -0.090000
     13 C12         -5.0850     0.4420     1.8760 ca         1 5JM      -0.092500
     14 C27         -5.7810    -5.0960     6.4470 c2         1 5JM      -0.058000
     15 N2          -2.6670    -1.5350     2.0390 n7         1 5JM       0.013000
     16 O3          -4.5180    -2.0950     0.9460 o          1 5JM      -0.414000
     17 C4          -2.1780    -0.7560     0.8980 c3         1 5JM      -0.084000
     18 C5          -0.6740    -0.6730     0.9550 c2         1 5JM       0.179000
     19 C6          -2.7690     0.6540     0.9530 c3         1 5JM      -0.065000
     20 C7          -4.2630     0.5800     0.7740 ca         1 5JM      -0.080000
     21 C8          -4.8120     0.6480    -0.4940 ca         1 5JM      -0.092500
     22 C9          -6.1820     0.5790    -0.6580 ca         1 5JM      -0.090000
     23 C10         -7.0040     0.4420     0.4440 ca         1 5JM      -0.093000
     24 O13         -0.0700    -1.2100     1.8580 o          1 5JM      -0.406000
     25 C25         -7.6530    -5.8490     5.1440 c2         1 5JM      -0.034000
     26 C26         -6.9460    -5.8380     6.3310 c2         1 5JM      -0.149000
     27 C28         -5.3120    -4.3640     5.3760 c2         1 5JM      -0.162000
     28 Cl2         -4.9020    -5.0980     7.9450 cl         1 5JM       0.073000
     29 N30         -7.9150    -5.1270     2.8560 na         1 5JM       0.347000
     30 C31         -8.3740    -6.2040     2.1830 c2         1 5JM      -0.241000
     31 N32         -8.9900    -5.7640     1.1180 n2         1 5JM      -0.132000
     32 N33         -8.9520    -4.4800     1.0710 n2         1 5JM       0.026000
     33 N34         -8.3170    -4.0160     2.0920 n2         1 5JM      -0.209000
     34 H47         -0.5000     0.4620    -0.7340 hn         1 5JM       0.069000
     35 H49          4.0040    -0.0010     2.1490 ha         1 5JM       0.127500
     36 H48          1.5450     0.0010     2.1430 ha         1 5JM       0.105500
     37 H50          4.0050     0.0040    -2.1490 ha         1 5JM       0.127500
     38 H51          1.5440     0.0020    -2.1430 ha         1 5JM       0.105500
     39 H52         -3.8880    -3.3760     2.2170 DU         1 5JM       0.054000
     40 H53         -5.1820    -4.5750     3.2820 DU         1 5JM       0.046000
     41 H45         -7.1010     0.2660     2.5750 ha         1 5JM       0.098000
     42 H46         -4.6550     0.3880     2.8690 ha         1 5JM       0.099500
     43 H38         -2.1100    -1.6120     2.8670 hn         1 5JM       0.121000
     44 H39         -2.4780    -1.2380    -0.0240 h1         1 5JM       0.107000
     45 H41         -2.5420     1.1040     1.9120 hc         1 5JM       0.066500
     46 H40         -2.3400     1.2560     0.1610 hc         1 5JM       0.066500
     47 H42         -4.1680     0.7560    -1.3580 ha         1 5JM       0.099500
     48 H43         -6.6120     0.6330    -1.6510 ha         1 5JM       0.098000
     49 H44         -8.0780     0.3890     0.3150 ha         1 5JM       0.099000
     50 H54         -8.5620    -6.4320     5.0620 ha         1 5JM       0.111000
     51 H55         -7.3060    -6.4110     7.1770 ha         1 5JM       0.122000
     52 H56         -4.4000    -3.7860     5.4710 ha         1 5JM       0.146000
     53 H57         -8.2550    -7.2410     2.4730 h5         1 5JM       0.171000
     54 O36          6.2470     0.0060    -1.0520 o          1 5JM      -0.617000
     55 O37          6.3140    -0.0030     1.1670 o          1 5JM      -0.617000
     56 C35          5.6400     0.0020    -0.0000 c2         1 5JM       0.420000
     57 C1          -3.8530    -2.1680     1.9630 c3         1 5JM       0.333000
@<TRIPOS>BOND
     1     1     5 1   
     2     1    18 1   
     3     1    34 1   
     4     2     3 1   
     5     2     6 1   
     6     2    56 1   
     7     3     4 1   
     8     3    35 1   
     9     4     5 1   
    10     4    36 1   
    11     5     7 1   
    12     6     7 1   
    13     6    37 1   
    14     7    38 1   
    15     8     9 1   
    16     8    39 1   
    17     8    57 1   
    18     9    10 1   
    19     9    40 1   
    20    10    11 1   
    21    10    27 1   
    22    10    40 1   
    23    11    25 1   
    24    11    29 1   
    25    12    13 1   
    26    12    23 1   
    27    12    41 1   
    28    13    20 1   
    29    13    42 1   
    30    14    26 1   
    31    14    27 1   
    32    14    28 1   
    33    15    17 1   
    34    15    43 1   
    35    15    57 1   
    36    16    57 1   
    37    17    18 1   
    38    17    19 1   
    39    17    44 1   
    40    18    24 1   
    41    19    20 1   
    42    19    45 1   
    43    19    46 1   
    44    20    21 1   
    45    21    22 1   
    46    21    47 1   
    47    22    23 1   
    48    22    48 1   
    49    23    49 1   
    50    25    26 1   
    51    25    50 1   
    52    26    51 1   
    53    27    52 1   
    54    29    30 1   
    55    29    33 1   
    56    30    31 1   
    57    30    53 1   
    58    31    32 1   
    59    32    33 1   
    60    39    57 1   
    61    54    56 1   
    62    55    56 1   
@<TRIPOS>SUBSTRUCTURE
     1 5JM         1 TEMP              0 ****  ****    0 ROOT
