@<TRIPOS>MOLECULE
5JN
   57    58     1     0     0
SMALL
bcc


@<TRIPOS>ATOM
      1 C1           0.0000     0.0000     0.0000 c3         1 5JN       0.064700
      2 C6           2.1980     0.0000     1.1970 ca         1 5JN      -0.118000
      3 C5           1.5070     0.0000     0.0000 ca         1 5JN      -0.066800
      4 C4           2.1970    -0.0010    -1.1970 ca         1 5JN      -0.126000
      5 C3           3.5850    -0.0010    -1.1960 ca         1 5JN      -0.079400
      6 C13          3.7170     1.3460    -5.8360 ca         1 5JN      -0.111300
      7 C21          1.2420     5.5300    -9.9700 c3         1 5JN      -0.015100
      8 C20          2.1140     4.8810    -8.8930 c3         1 5JN       0.118800
      9 C18          2.7100     0.7510    -6.5750 ca         1 5JN      -0.042500
     10 C17          2.0170     1.4880    -7.5170 ca         1 5JN      -0.171500
     11 O30          3.2370    11.6340    -7.1460 o          1 5JN      -0.424000
     12 C7           3.5810     0.0010     1.2020 ca         1 5JN      -0.066800
     13 C8           4.2760     0.0000     0.0080 ca         1 5JN      -0.126000
     14 N9           4.2870    -0.0020    -2.4070 ns         1 5JN      -0.043100
     15 C10          3.7840     0.6420    -3.4780 c          1 5JN       0.552100
     16 O11          2.7760     1.3070    -3.3670 o          1 5JN      -0.613100
     17 C12          4.4740     0.5380    -4.8130 c3         1 5JN      -0.032100
     18 C14          4.0320     2.6770    -6.0360 ca         1 5JN      -0.042500
     19 C15          3.3420     3.4170    -6.9770 ca         1 5JN      -0.171500
     20 C16          2.3330     2.8240    -7.7210 ca         1 5JN       0.161100
     21 O19          1.6530     3.5500    -8.6460 os         1 5JN      -0.280900
     22 C22          3.5670     4.8360    -9.3720 c3         1 5JN      -0.015100
     23 C23          2.0270     5.6860    -7.6230 c          1 5JN       0.659100
     24 O24          1.6140     5.1740    -6.6100 o          1 5JN      -0.543000
     25 O25          2.4100     6.9720    -7.6160 os         1 5JN      -0.412900
     26 C26          2.3000     7.6870    -6.3570 c3         1 5JN       0.221400
     27 C27          2.7780     9.1280    -6.5450 c3         1 5JN       0.224400
     28 O28          1.9000     9.8090    -7.4440 os         1 5JN      -0.472000
     29 N29          2.2560    11.1570    -7.6880 no         1 5JN       1.019200
     30 O31          1.5810    11.8400    -8.4380 o          1 5JN      -0.424000
     31 H1          -0.3610    -0.3850     0.9460 hc         1 5JN       0.007367
     32 H2          -0.3610    -0.6270    -0.8060 hc         1 5JN       0.007367
     33 H3          -0.3610     1.0120    -0.1400 hc         1 5JN       0.007367
     34 H4           1.6540    -0.0060     2.1340 ha         1 5JN       0.108000
     35 H5           1.6550    -0.0020    -2.1350 ha         1 5JN       0.124500
     36 H6           4.2610    -0.9700     2.9700 hc         1 5JN       0.007367
     37 H7           3.8960     0.7490     3.1700 hc         1 5JN       0.007367
     38 H8           5.3690     0.2500     2.3280 hc         1 5JN       0.007367
     39 H9           0.2410     5.6760    -9.5830 hc         1 5JN       0.024033
     40 H10          1.2030     4.8860   -10.8400 hc         1 5JN       0.024033
     41 H11          1.6650     6.4880   -10.2480 hc         1 5JN       0.024033
     42 H12          2.4650    -0.2920    -6.4160 ha         1 5JN       0.100500
     43 H13          1.2290     1.0220    -8.0970 ha         1 5JN       0.119000
     44 H14          5.3600     0.0010     0.0120 ha         1 5JN       0.124500
     45 H15          5.1440    -0.5140    -2.4880 hn         1 5JN       0.164500
     46 H16          5.4840     0.9200    -4.7280 hc         1 5JN       0.028200
     47 H17          4.5050    -0.4990    -5.1240 hc         1 5JN       0.028200
     48 H18          4.8210     3.1390    -5.4550 ha         1 5JN       0.100500
     49 H19          3.5900     4.4600    -7.1330 ha         1 5JN       0.119000
     50 H20          4.2040     5.3130    -8.6360 hc         1 5JN       0.024033
     51 H21          3.8730     3.8050    -9.5010 hc         1 5JN       0.024033
     52 H22          3.6520     5.3600   -10.3160 hc         1 5JN       0.024033
     53 H23          2.9120     7.1980    -5.6090 h1         1 5JN       0.028700
     54 H24          1.2660     7.6890    -6.0330 h1         1 5JN       0.028700
     55 H25          3.7820     9.1250    -6.9540 h1         1 5JN       0.025200
     56 H26          2.7800     9.6360    -5.5880 h1         1 5JN       0.025200
     57 C2           4.3290     0.0080     2.5090 c3         1 5JN       0.064700
@<TRIPOS>BOND
     1     1     3 1   
     2     1    31 1   
     3     1    32 1   
     4     1    33 1   
     5     2     3 ar  
     6     2    12 ar  
     7     2    34 1   
     8     3     4 ar  
     9     4     5 ar  
    10     4    35 1   
    11     5    13 ar  
    12     5    14 1   
    13     6     9 ar  
    14     6    17 1   
    15     6    18 ar  
    16     7     8 1   
    17     7    39 1   
    18     7    40 1   
    19     7    41 1   
    20     8    21 1   
    21     8    22 1   
    22     8    23 1   
    23     9    10 ar  
    24     9    42 1   
    25    10    20 ar  
    26    10    43 1   
    27    11    29 1   
    28    12    13 ar  
    29    12    57 1   
    30    13    44 1   
    31    14    15 1   
    32    14    45 1   
    33    15    16 2   
    34    15    17 1   
    35    17    46 1   
    36    17    47 1   
    37    18    19 ar  
    38    18    48 1   
    39    19    20 ar  
    40    19    49 1   
    41    20    21 1   
    42    22    50 1   
    43    22    51 1   
    44    22    52 1   
    45    23    24 2   
    46    23    25 1   
    47    25    26 1   
    48    26    27 1   
    49    26    53 1   
    50    26    54 1   
    51    27    28 1   
    52    27    55 1   
    53    27    56 1   
    54    28    29 1   
    55    29    30 1   
    56    36    57 1   
    57    37    57 1   
    58    38    57 1   
@<TRIPOS>SUBSTRUCTURE
     1 5JN         1 TEMP              0 ****  ****    0 ROOT
