@<TRIPOS>MOLECULE
molecule
   16    15     1     0     0
SMALL
bcc


@<TRIPOS>ATOM
      1 O            0.0000     0.0000     0.0000 o          1 5JP      -0.843800
      2 C            1.2080     0.0000     0.0000 c          1 5JP       0.903600
      3 CA           1.9620     0.0000     1.3040 c3         1 5JP       0.059500
      4 CB           2.8420    -1.2480     1.3860 c3         1 5JP       0.174400
      5 OG           2.0360    -2.4130     1.1930 oh         1 5JP      -0.574800
      6 N            1.0080    -0.0000     2.4220 n7         1 5JP      -0.800200
      7 CN           1.6110     0.5790     3.6290 c3         1 5JP       0.145100
      8 OXT          1.8790    -0.0050    -1.1630 o          1 5JP      -0.843800
      9 HA           2.5850     0.8850     1.3610 h1         1 5JP       0.018700
     10 HB2          3.6030    -1.2050     0.6160 h1         1 5JP       0.000700
     11 HB3          3.3160    -1.2940     2.3590 h1         1 5JP       0.000700
     12 HG           2.5790    -3.1830     1.2360 ho         1 5JP       0.362000
     13 H            0.1960     0.5280     2.1680 hn         1 5JP       0.375800
     14 H7           2.4430    -0.0370     3.9490 h1         1 5JP       0.007033
     15 H8           0.8700     0.6230     4.4180 h1         1 5JP       0.007033
     16 H9           1.9660     1.5790     3.4110 h1         1 5JP       0.007033
@<TRIPOS>BOND
     1     7     6 1
     2     6     3 1
     3     1     2 1
     4     3     2 1
     5     3     4 1
     6     4     5 1
     7     2     8 1
     8     3     9 1
     9     4    10 1
    10     4    11 1
    11     5    12 1
    12     6    13 1
    13     7    14 1
    14     7    15 1
    15     7    16 1
@<TRIPOS>SUBSTRUCTURE
     1 5JP         1 TEMP              0 ****  ****    0 ROOT
