@<TRIPOS>MOLECULE
5JQ
   16    17     1     0     0
SMALL
bcc


@<TRIPOS>ATOM
      1 C2           0.0000     0.0000     0.0000 cc         1 5JQ      -0.255800
      2 C3          -2.1660    -0.0080    -0.4420 c          1 5JQ       0.530500
      3 C4           2.0550     0.0000     1.1630 cs         1 5JQ       0.223400
      4 C5           0.0660    -0.0070     2.3960 c          1 5JQ       0.624700
      5 O2          -0.5100    -0.0140     3.4700 o          1 5JQ      -0.643500
      6 N4           1.4140     0.0000     2.3460 ns         1 5JQ       0.007500
      7 S1           3.7660     0.0010     1.1350 s          1 5JQ      -0.634400
      8 N3           1.3750     0.0000     0.0000 ns         1 5JQ       0.188900
      9 C1          -0.6700    -0.0060     1.1940 cd         1 5JQ      -0.340600
     10 N2          -2.0370    -0.0110     0.8990 ns         1 5JQ       0.103900
     11 O1          -3.2190    -0.0100    -1.0520 o          1 5JQ      -0.691500
     12 N1          -0.9390    -0.0010    -0.9990 ns         1 5JQ       0.067900
     13 H1           1.9420     0.0050     3.1960 hn         1 5JQ       0.223500
     14 H2           1.8730     0.0000    -0.8680 hn         1 5JQ       0.195500
     15 H3          -2.7840    -0.0170     1.5650 hn         1 5JQ       0.206500
     16 H4          -0.7450     0.0030    -1.9800 hn         1 5JQ       0.193500
@<TRIPOS>BOND
     1     1     8 1   
     2     1     9 2   
     3     1    12 1   
     4     2    10 1   
     5     2    11 2   
     6     2    12 1   
     7     3     6 1   
     8     3     7 2   
     9     3     8 1   
    10     4     5 2   
    11     4     6 1   
    12     4     9 1   
    13     6    13 1   
    14     8    14 1   
    15     9    10 1   
    16    10    15 1   
    17    12    16 1   
@<TRIPOS>SUBSTRUCTURE
     1 5JQ         1 TEMP              0 ****  ****    0 ROOT
