@<TRIPOS>MOLECULE
molecule
   16    17     1     0     0
SMALL
bcc


@<TRIPOS>ATOM
      1 C2           0.0000     0.0000     0.0000 cc         1 5JQ       0.094200
      2 C3          -2.1660    -0.0080    -0.4420 c          1 5JQ       0.793500
      3 C4           2.0550     0.0000     1.1630 cs         1 5JQ       0.583400
      4 C5           0.0660    -0.0070     2.3960 c          1 5JQ       0.717700
      5 O2          -0.5100    -0.0140     3.4700 o          1 5JQ      -0.600500
      6 N4           1.4140     0.0000     2.3460 ns         1 5JQ      -0.487500
      7 S1           3.7660     0.0010     1.1350 s          1 5JQ      -0.588400
      8 N3           1.3750     0.0000     0.0000 ns         1 5JQ      -0.370100
      9 C1          -0.6700    -0.0060     1.1940 cd         1 5JQ      -0.187600
     10 N2          -2.0370    -0.0110     0.8990 ns         1 5JQ      -0.409100
     11 O1          -3.2190    -0.0100    -1.0520 o          1 5JQ      -0.634500
     12 N1          -0.9390    -0.0010    -0.9990 ns         1 5JQ      -0.432100
     13 H1           1.9420     0.0050     3.1960 hn         1 5JQ       0.391500
     14 H2           1.8730     0.0000    -0.8680 hn         1 5JQ       0.377500
     15 H3          -2.7840    -0.0170     1.5650 hn         1 5JQ       0.384500
     16 H4          -0.7450     0.0030    -1.9800 hn         1 5JQ       0.366500
@<TRIPOS>BOND
     1     5     4 2
     2    10     9 1
     3    10     2 1
     4     4     9 1
     5     4     6 1
     6    11     2 2
     7     9     1 2
     8     2    12 1
     9     6     3 1
    10     1    12 1
    11     1     8 1
    12     3     8 1
    13     3     7 2
    14     6    13 1
    15     8    14 1
    16    10    15 1
    17    12    16 1
@<TRIPOS>SUBSTRUCTURE
     1 5JQ         1 TEMP              0 ****  ****    0 ROOT
