@<TRIPOS>MOLECULE
molecule
   32    34     1     0     0
SMALL
bcc


@<TRIPOS>ATOM
      1 C2           0.0000     0.0000     0.0000 ca         1 5JT       0.726900
      2 C4           2.0060     0.0000     1.1400 ca         1 5JT       0.663200
      3 C5           1.2900    -0.0000     2.3470 ca         1 5JT      -0.354400
      4 C6          -0.1160     0.0000     2.2980 ca         1 5JT       0.514800
      5 C8           0.4990     0.0010     4.4570 cc         1 5JT      -0.067100
      6 N10          3.3900    -0.0010     1.1360 nh         1 5JT      -0.733300
      7 C11          3.9190     1.1320     1.9050 c3         1 5JT       0.150800
      8 C12          5.4420     1.0180     2.0010 c3         1 5JT      -0.096400
      9 C13          6.0390     1.0110     0.5910 c3         1 5JT      -0.109400
     10 C14          5.4350    -0.1490    -0.2040 c3         1 5JT       0.101500
     11 N1           1.3210     0.0000     0.0000 nb         1 5JT      -0.813000
     12 N3          -0.7110    -0.0000     1.1060 nb         1 5JT      -0.744000
     13 N7          -0.5650     0.0020     3.5900 na         1 5JT      -0.262100
     14 C9           1.6490     0.0010     3.7640 cd         1 5JT      -0.200200
     15 C15          3.9110    -0.0010    -0.2360 c3         1 5JT       0.147800
     16 N16          5.7910    -1.4210     0.4380 nz         1 5JT      -0.806600
     17 H1          -0.5720     0.0010    -0.9200 h5         1 5JT       0.076100
     18 H2           0.4220     0.0010     5.5370 h4         1 5JT       0.188000
     19 H3           3.6580     2.0580     1.4060 h1         1 5JT       0.079200
     20 H4           3.4940     1.1210     2.9010 h1         1 5JT       0.079200
     21 H5           5.8330     1.8640     2.5540 hc         1 5JT       0.063700
     22 H6           5.7040     0.0960     2.5070 hc         1 5JT       0.063700
     23 H7           7.1130     0.8860     0.6530 hc         1 5JT       0.085200
     24 H8           5.8060     1.9470     0.0960 hc         1 5JT       0.085200
     25 H9           5.8190    -0.1300    -1.2170 hx         1 5JT       0.114700
     26 H10         -1.5280     0.0020     3.8640 hn         1 5JT       0.324700
     27 H11          2.6510     0.0010     4.1760 ha         1 5JT       0.155000
     28 H12          3.6510     0.9330    -0.7200 h1         1 5JT       0.096200
     29 H13          3.4810    -0.8300    -0.7850 h1         1 5JT       0.096200
     30 H14          6.7490    -1.3940     0.7250 hn         1 5JT       0.457800
     31 H15          5.6580    -2.1720    -0.2110 hn         1 5JT       0.457800
     32 H163         5.2070    -1.5660     1.2390 hn         1 5JT       0.457800
@<TRIPOS>BOND
     1     1    12 ar  
     2     1    11 ar  
     3    12     4 ar  
     4    11     2 ar  
     5     2     6 1   
     6     2     3 ar  
     7     4     3 ar  
     8     4    13 1   
     9     7     6 1   
    10     7     8 1   
    11     6    15 1   
    12     3    14 1   
    13    13     5 1   
    14    15    10 1   
    15    14     5 2   
    16     8     9 1   
    17    10     9 1   
    18    10    16 1   
    19     1    17 1   
    20     5    18 1   
    21     7    19 1   
    22     7    20 1   
    23     8    21 1   
    24     8    22 1   
    25     9    23 1   
    26     9    24 1   
    27    10    25 1   
    28    13    26 1   
    29    14    27 1   
    30    15    28 1   
    31    15    29 1   
    32    16    30 1   
    33    16    31 1   
    34    32    16 1   
@<TRIPOS>SUBSTRUCTURE
     1 5JT         1 TEMP              0 ****  ****    0 ROOT
