@<TRIPOS>MOLECULE
5JU
   81    86     1     0     0
SMALL
bcc


@<TRIPOS>ATOM
      1 C1           0.0000     0.0000     0.0000 ca         1 5JU       0.398600
      2 C3           2.0140     0.0000     1.1210 ca         1 5JU       0.410200
      3 C41         -3.9760     8.1460    -0.2970 c3         1 5JU      -0.003000
      4 C43         -3.8390    14.9310    -3.6630 c3         1 5JU       0.161100
      5 C45         -0.7470     0.0070    -1.3090 c3         1 5JU      -0.051400
      6 C11         -2.5450     2.5650     1.2020 ca         1 5JU      -0.104000
      7 C12         -2.1910    -0.0020     1.2000 cc         1 5JU      -0.005400
      8 C13         -2.9130    -1.1240     1.1980 cd         1 5JU       0.036000
      9 C16         -3.4590     3.5960     1.1970 ca         1 5JU      -0.064400
     10 C18         -3.7030     5.8650     0.5180 c          1 5JU       0.566100
     11 C20         -3.7430    21.2360    -3.2440 ca         1 5JU      -0.415900
     12 C21         -4.3930    22.1760    -4.0450 ca         1 5JU       0.573300
     13 C23         -5.6790    20.4640    -4.9060 ca         1 5JU       0.656900
     14 C25         -4.1130    19.9050    -3.3140 ca         1 5JU       0.558200
     15 C26         -2.7290    22.0210    -2.4510 c3         1 5JU      -0.059400
     16 C27         -2.9400    23.4430    -2.9370 c2         1 5JU       0.415200
     17 C30         -3.5760    19.3090    -1.1010 c3         1 5JU       0.126800
     18 N2           1.3180     0.0000     0.0000 nb         1 5JU      -0.579000
     19 C4           1.3840    -0.0010     2.3520 ca         1 5JU      -0.234300
     20 C5           0.0010    -0.0020     2.4060 ca         1 5JU      -0.048000
     21 C6          -0.7100    -0.0010     1.2010 ca         1 5JU      -0.163100
     22 C7          -2.9830     1.2260     1.2010 ca         1 5JU      -0.047800
     23 C8          -4.3530     0.9620     1.1990 ca         1 5JU       0.017900
     24 C9          -5.2670     2.0200     1.1990 ca         1 5JU      -0.041000
     25 C10         -4.8250     3.3220     1.1950 ca         1 5JU      -0.092000
     26 S14         -4.6300    -0.7760     1.1970 ss         1 5JU      -0.196500
     27 Cl          -2.2360    -2.7230     1.1970 cl         1 5JU       0.056600
     28 N17         -3.0140     4.9250     1.1930 ns         1 5JU      -0.050100
     29 O19         -4.7570     5.5790    -0.0190 o          1 5JU      -0.707100
     30 N22         -5.3580    21.7390    -4.8630 nb         1 5JU      -0.604000
     31 N24         -5.0850    19.5560    -4.1580 nb         1 5JU      -0.676000
     32 N28         -3.8800    23.4190    -3.8150 ne         1 5JU      -0.524700
     33 N29         -3.4860    18.9540    -2.5230 nh         1 5JU      -0.456300
     34 C31         -2.7530    18.3190    -0.2740 c3         1 5JU      -0.021400
     35 C32         -3.2890    16.9030    -0.5000 c3         1 5JU      -0.039400
     36 C33         -3.2290    16.5760    -1.9940 c3         1 5JU       0.128500
     37 C34         -4.0380    17.6170    -2.7720 c3         1 5JU       0.129800
     38 N35         -3.7940    15.2400    -2.2280 n3         1 5JU      -0.536600
     39 C36         -3.0420    14.2150    -1.4920 c3         1 5JU       0.146800
     40 C37         -3.7970    12.8850    -1.5540 c3         1 5JU      -0.050400
     41 C38         -3.0140    11.8190    -0.7870 c3         1 5JU       0.049000
     42 N39         -3.7380    10.5450    -0.8460 ns         1 5JU      -0.183900
     43 C40         -3.2330     9.4540    -0.2360 c          1 5JU       0.561100
     44 O42         -2.1800     9.5270     0.3620 o          1 5JU      -0.658100
     45 N44         -3.2270     7.1230     0.4380 ns         1 5JU      -0.203900
     46 H1           3.0960     0.0000     1.0760 h4         1 5JU      -0.020900
     47 H2          -4.9560     8.2650     0.1480 h1         1 5JU       0.038700
     48 H3          -4.0850     7.8400    -1.3310 h1         1 5JU       0.038700
     49 H4          -4.8610    14.9960    -4.0140 h1         1 5JU       0.010367
     50 H5          -3.4630    13.9280    -3.8280 h1         1 5JU       0.010367
     51 H6          -3.2250    15.6400    -4.2040 h1         1 5JU       0.010367
     52 H7          -1.4730    -0.7980    -1.3150 hc         1 5JU       0.020033
     53 H8          -0.0480    -0.1300    -2.1250 hc         1 5JU       0.020033
     54 H9          -1.2590     0.9550    -1.4280 hc         1 5JU       0.020033
     55 H10         -1.4840     2.7850     1.2030 ha         1 5JU       0.113000
     56 H12         -1.7250    21.6860    -2.6780 hc         1 5JU       0.056200
     57 H13         -2.9340    21.9480    -1.3900 hc         1 5JU       0.056200
     58 H14         -2.0900    24.1010    -3.0720 h4         1 5JU       0.014800
     59 H15         -4.6110    19.2690    -0.7850 h1         1 5JU       0.024700
     60 H16         -3.1870    20.3100    -0.9560 h1         1 5JU       0.024700
     61 H17          1.9670    -0.0010     3.2650 ha         1 5JU       0.114000
     62 H18         -0.5180    -0.0030     3.3570 ha         1 5JU       0.115000
     63 H19         -6.3310     1.8130     1.1970 ha         1 5JU       0.113000
     64 H20         -5.5400     4.1360     1.1910 ha         1 5JU       0.154000
     65 H21         -2.1870     5.1760     1.6970 hn         1 5JU       0.165500
     66 H22         -2.8360    18.5720     0.7770 hc         1 5JU       0.021700
     67 H23         -1.7160    18.3660    -0.5820 hc         1 5JU       0.021700
     68 H24         -4.3160    16.8460    -0.1600 hc         1 5JU       0.027700
     69 H25         -2.6800    16.1940     0.0490 hc         1 5JU       0.027700
     70 H26         -2.1980    16.6010    -2.3270 h1         1 5JU       0.020700
     71 H27         -3.9830    17.3970    -3.8320 h1         1 5JU       0.041700
     72 H28         -5.0710    17.5870    -2.4450 h1         1 5JU       0.041700
     73 H30         -2.9320    14.5200    -0.4580 h1         1 5JU       0.017700
     74 H31         -2.0620    14.0950    -1.9390 h1         1 5JU       0.017700
     75 H32         -3.9060    12.5800    -2.5870 hc         1 5JU       0.027700
     76 H33         -4.7770    13.0050    -1.1070 hc         1 5JU       0.027700
     77 H34         -2.0350    11.6990    -1.2340 h1         1 5JU       0.028200
     78 H35         -2.9050    12.1240     0.2470 h1         1 5JU       0.028200
     79 H36         -4.6050    10.4850    -1.3420 hn         1 5JU       0.178500
     80 H37         -2.3580     7.3580     0.8760 hn         1 5JU       0.198500
     81 H11         -6.4650    20.1480    -5.5820 h5         1 5JU       0.001100
@<TRIPOS>BOND
     1     1     5 1   
     2     1    18 ar  
     3     1    21 ar  
     4     2    18 ar  
     5     2    19 ar  
     6     2    46 1   
     7     3    43 1   
     8     3    45 1   
     9     3    47 1   
    10     3    48 1   
    11     4    38 1   
    12     4    49 1   
    13     4    50 1   
    14     4    51 1   
    15     5    52 1   
    16     5    53 1   
    17     5    54 1   
    18     6     9 ar  
    19     6    22 ar  
    20     6    55 1   
    21     7     8 2   
    22     7    21 1   
    23     7    22 1   
    24     8    26 1   
    25     8    27 1   
    26     9    25 ar  
    27     9    28 1   
    28    10    28 1   
    29    10    29 2   
    30    10    45 1   
    31    11    12 ar  
    32    11    14 ar  
    33    11    15 1   
    34    12    30 ar  
    35    12    32 1   
    36    13    30 ar  
    37    13    31 ar  
    38    13    81 1   
    39    14    31 ar  
    40    14    33 1   
    41    15    16 1   
    42    15    56 1   
    43    15    57 1   
    44    16    32 2   
    45    16    58 1   
    46    17    33 1   
    47    17    34 1   
    48    17    59 1   
    49    17    60 1   
    50    19    20 ar  
    51    19    61 1   
    52    20    21 ar  
    53    20    62 1   
    54    22    23 ar  
    55    23    24 ar  
    56    23    26 1   
    57    24    25 ar  
    58    24    63 1   
    59    25    64 1   
    60    28    65 1   
    61    33    37 1   
    62    34    35 1   
    63    34    66 1   
    64    34    67 1   
    65    35    36 1   
    66    35    68 1   
    67    35    69 1   
    68    36    37 1   
    69    36    38 1   
    70    36    70 1   
    71    37    71 1   
    72    37    72 1   
    73    38    39 1   
    74    39    40 1   
    75    39    73 1   
    76    39    74 1   
    77    40    41 1   
    78    40    75 1   
    79    40    76 1   
    80    41    42 1   
    81    41    77 1   
    82    41    78 1   
    83    42    43 1   
    84    42    79 1   
    85    43    44 2   
    86    45    80 1   
@<TRIPOS>SUBSTRUCTURE
     1 5JU         1 TEMP              0 ****  ****    0 ROOT
