@<TRIPOS>MOLECULE
molecule
   81    86     1     0     0
SMALL
bcc


@<TRIPOS>ATOM
      1 C1           0.0000     0.0000     0.0000 ca         1 5JU       0.451600
      2 C3           2.0140     0.0000     1.1210 ca         1 5JU       0.427200
      3 C41         -3.9760     8.1460    -0.2970 c3         1 5JU       0.057000
      4 C43         -3.8390    14.9310    -3.6630 c3         1 5JU       0.142100
      5 C45         -0.7470     0.0070    -1.3090 c3         1 5JU      -0.143400
      6 C11         -2.5450     2.5650     1.2020 ca         1 5JU      -0.130000
      7 C12         -2.1910    -0.0020     1.2000 cc         1 5JU      -0.021400
      8 C13         -2.9130    -1.1240     1.1980 cd         1 5JU       0.072000
      9 C16         -3.4590     3.5960     1.1970 ca         1 5JU       0.077600
     10 C18         -3.7030     5.8650     0.5180 c          1 5JU       0.786100
     11 C20         -3.7430    21.2360    -3.2440 ca         1 5JU      -0.408900
     12 C21         -4.3930    22.1760    -4.0450 ca         1 5JU       0.661300
     13 C23         -5.6790    20.4640    -4.9060 ca         1 5JU       0.712900
     14 C25         -4.1130    19.9050    -3.3140 ca         1 5JU       0.680200
     15 C26         -2.7290    22.0210    -2.4510 c3         1 5JU      -0.152400
     16 C27         -2.9400    23.4430    -2.9370 c2         1 5JU       0.449200
     17 C30         -3.5760    19.3090    -1.1010 c3         1 5JU       0.163800
     18 N2           1.3180     0.0000     0.0000 nb         1 5JU      -0.693000
     19 C4           1.3840    -0.0010     2.3520 ca         1 5JU      -0.266300
     20 C5           0.0010    -0.0020     2.4060 ca         1 5JU      -0.070000
     21 C6          -0.7100    -0.0010     1.2010 ca         1 5JU      -0.168100
     22 C7          -2.9830     1.2260     1.2010 ca         1 5JU      -0.048800
     23 C8          -4.3530     0.9620     1.1990 ca         1 5JU      -0.031100
     24 C9          -5.2670     2.0200     1.1990 ca         1 5JU      -0.084000
     25 C10         -4.8250     3.3220     1.1950 ca         1 5JU      -0.110000
     26 S14         -4.6300    -0.7760     1.1970 ss         1 5JU      -0.060500
     27 Cl          -2.2360    -2.7230     1.1970 cl         1 5JU      -0.052400
     28 N17         -3.0140     4.9250     1.1930 ns         1 5JU      -0.490100
     29 O19         -4.7570     5.5790    -0.0190 o          1 5JU      -0.656100
     30 N22         -5.3580    21.7390    -4.8630 nb         1 5JU      -0.725000
     31 N24         -5.0850    19.5560    -4.1580 nb         1 5JU      -0.786000
     32 N28         -3.8800    23.4190    -3.8150 ne         1 5JU      -0.629700
     33 N29         -3.4860    18.9540    -2.5230 nh         1 5JU      -0.698300
     34 C31         -2.7530    18.3190    -0.2740 c3         1 5JU      -0.081400
     35 C32         -3.2890    16.9030    -0.5000 c3         1 5JU      -0.083400
     36 C33         -3.2290    16.5760    -1.9940 c3         1 5JU       0.167500
     37 C34         -4.0380    17.6170    -2.7720 c3         1 5JU       0.173800
     38 N35         -3.7940    15.2400    -2.2280 n3         1 5JU      -0.729600
     39 C36         -3.0420    14.2150    -1.4920 c3         1 5JU       0.163800
     40 C37         -3.7970    12.8850    -1.5540 c3         1 5JU      -0.103400
     41 C38         -3.0140    11.8190    -0.7870 c3         1 5JU       0.111000
     42 N39         -3.7380    10.5450    -0.8460 ns         1 5JU      -0.581900
     43 C40         -3.2330     9.4540    -0.2360 c          1 5JU       0.648100
     44 O42         -2.1800     9.5270     0.3620 o          1 5JU      -0.616100
     45 N44         -3.2270     7.1230     0.4380 ns         1 5JU      -0.590900
     46 H1           3.0960     0.0000     1.0760 h4         1 5JU       0.022100
     47 H2          -4.9560     8.2650     0.1480 h1         1 5JU       0.072700
     48 H3          -4.0850     7.8400    -1.3310 h1         1 5JU       0.072700
     49 H4          -4.8610    14.9960    -4.0140 h1         1 5JU       0.038033
     50 H5          -3.4630    13.9280    -3.8280 h1         1 5JU       0.038033
     51 H6          -3.2250    15.6400    -4.2040 h1         1 5JU       0.038033
     52 H7          -1.4730    -0.7980    -1.3150 hc         1 5JU       0.056700
     53 H8          -0.0480    -0.1300    -2.1250 hc         1 5JU       0.056700
     54 H9          -1.2590     0.9550    -1.4280 hc         1 5JU       0.056700
     55 H10         -1.4840     2.7850     1.2030 ha         1 5JU       0.140000
     56 H12         -1.7250    21.6860    -2.6780 hc         1 5JU       0.090200
     57 H13         -2.9340    21.9480    -1.3900 hc         1 5JU       0.090200
     58 H14         -2.0900    24.1010    -3.0720 h4         1 5JU       0.066800
     59 H15         -4.6110    19.2690    -0.7850 h1         1 5JU       0.048200
     60 H16         -3.1870    20.3100    -0.9560 h1         1 5JU       0.048200
     61 H17          1.9670    -0.0010     3.2650 ha         1 5JU       0.138000
     62 H18         -0.5180    -0.0030     3.3570 ha         1 5JU       0.144000
     63 H19         -6.3310     1.8130     1.1970 ha         1 5JU       0.141000
     64 H20         -5.5400     4.1360     1.1910 ha         1 5JU       0.176000
     65 H21         -2.1870     5.1760     1.6970 hn         1 5JU       0.324500
     66 H22         -2.8360    18.5720     0.7770 hc         1 5JU       0.053700
     67 H23         -1.7160    18.3660    -0.5820 hc         1 5JU       0.053700
     68 H24         -4.3160    16.8460    -0.1600 hc         1 5JU       0.052700
     69 H25         -2.6800    16.1940     0.0490 hc         1 5JU       0.052700
     70 H26         -2.1980    16.6010    -2.3270 h1         1 5JU       0.037700
     71 H27         -3.9830    17.3970    -3.8320 h1         1 5JU       0.066200
     72 H28         -5.0710    17.5870    -2.4450 h1         1 5JU       0.066200
     73 H30         -2.9320    14.5200    -0.4580 h1         1 5JU       0.039700
     74 H31         -2.0620    14.0950    -1.9390 h1         1 5JU       0.039700
     75 H32         -3.9060    12.5800    -2.5870 hc         1 5JU       0.055700
     76 H33         -4.7770    13.0050    -1.1070 hc         1 5JU       0.055700
     77 H34         -2.0350    11.6990    -1.2340 h1         1 5JU       0.055200
     78 H35         -2.9050    12.1240     0.2470 h1         1 5JU       0.055200
     79 H36         -4.6050    10.4850    -1.3420 hn         1 5JU       0.319500
     80 H37         -2.3580     7.3580     0.8760 hn         1 5JU       0.336500
     81 H11         -6.4650    20.1480    -5.5820 h5         1 5JU       0.065100
@<TRIPOS>BOND
     1    26     8 1   
     2    26    23 1   
     3    27     8 1   
     4    24    23 ar  
     5    24    25 ar  
     6     8     7 2   
     7    23    22 ar  
     8     5     1 1   
     9    25     9 ar  
    10     7    22 1   
    11     7    21 1   
    12    22     6 ar  
    13     1    21 ar  
    14     1    18 ar  
    15     9     6 ar  
    16     9    28 1   
    17    21    20 ar  
    18    28    10 1   
    19    18     2 ar  
    20    20    19 ar  
    21     2    19 ar  
    22    10    29 2   
    23    10    45 1   
    24    45     3 1   
    25     3    43 1   
    26    42    43 1   
    27    42    41 1   
    28    43    44 2   
    29    41    40 1   
    30    40    39 1   
    31    13    30 ar  
    32    13    31 ar  
    33    30    12 ar  
    34    39    38 1   
    35    31    14 ar  
    36    37    33 1   
    37    37    36 1   
    38    12    32 1   
    39    12    11 ar  
    40    14    11 ar  
    41    14    33 1   
    42    32    16 2   
    43    11    15 1   
    44    33    17 1   
    45    38    36 1   
    46    38     4 1   
    47    16    15 1   
    48    36    35 1   
    49    17    34 1   
    50    34    35 1   
    51     2    46 1   
    52     3    47 1   
    53     3    48 1   
    54     4    49 1   
    55     4    50 1   
    56     4    51 1   
    57     5    52 1   
    58     5    53 1   
    59     5    54 1   
    60     6    55 1   
    61    13    81 1   
    62    15    56 1   
    63    15    57 1   
    64    16    58 1   
    65    17    59 1   
    66    17    60 1   
    67    19    61 1   
    68    20    62 1   
    69    24    63 1   
    70    25    64 1   
    71    28    65 1   
    72    34    66 1   
    73    34    67 1   
    74    35    68 1   
    75    35    69 1   
    76    36    70 1   
    77    37    71 1   
    78    37    72 1   
    79    39    73 1   
    80    39    74 1   
    81    40    75 1   
    82    40    76 1   
    83    41    77 1   
    84    41    78 1   
    85    42    79 1   
    86    45    80 1   
@<TRIPOS>SUBSTRUCTURE
     1 5JU         1 TEMP              0 ****  ****    0 ROOT
