@<TRIPOS>MOLECULE
molecule
   37    37     1     0     0
SMALL
bcc


@<TRIPOS>ATOM
      1 OA           0.0000     0.0000     0.0000 o          1 5JV      -0.853800
      2 CA           1.2080     0.0000     0.0000 c          1 5JV       0.896600
      3 OB           1.8780     0.0000     1.1640 o          1 5JV      -0.853800
      4 CB           1.9620    -0.0050    -1.3040 c3         1 5JV      -0.178400
      5 CG           0.9690    -0.0110    -2.4680 c3         1 5JV      -0.073200
      6 CD           1.7240    -0.0160    -3.7720 ce         1 5JV       0.121400
      7 CE           1.9710    -1.1670    -4.3930 c2         1 5JV      -0.274000
      8 N2           2.1520     1.1550    -4.3140 ne         1 5JV      -0.626300
      9 C4A          1.9100     2.2830    -3.7050 cf         1 5JV       0.508800
     10 C4           2.3750     3.5490    -4.2920 ca         1 5JV      -0.162900
     11 C3           3.0750     3.5690    -5.5110 ca         1 5JV       0.003800
     12 O3           3.3400     2.4150    -6.1750 oh         1 5JV      -0.499100
     13 C2           3.4910     4.7890    -6.0230 ca         1 5JV       0.323600
     14 C2A          4.2440     4.8290    -7.3290 c3         1 5JV      -0.122400
     15 N1           3.2370     5.9120    -5.3840 nb         1 5JV      -0.708000
     16 C6           2.5830     5.9360    -4.2380 ca         1 5JV       0.423200
     17 C5           2.1270     4.7740    -3.6550 ca         1 5JV      -0.118600
     18 C5A          1.3750     4.8170    -2.3490 c3         1 5JV       0.239700
     19 O4P          1.2550     6.1730    -1.9130 os         1 5JV      -0.584200
     20 P            0.5080     6.5940    -0.5500 p5         1 5JV       1.168900
     21 O3P         -0.8680     6.0500    -0.5550 o          1 5JV      -0.902833
     22 O1P          1.3160     6.0010     0.7100 o          1 5JV      -0.902833
     23 O2P          0.4510     8.1990    -0.4440 o          1 5JV      -0.902833
     24 H2           2.5860    -0.8890    -1.3570 hc         1 5JV       0.031200
     25 H3           2.5850     0.8800    -1.3640 hc         1 5JV       0.031200
     26 H4           0.3450     0.8730    -2.4150 hc         1 5JV       0.058200
     27 H5           0.3470    -0.8960    -2.4070 hc         1 5JV       0.058200
     28 H6           2.5130    -1.1710    -5.3310 ha         1 5JV       0.097500
     29 H7           1.6290    -2.0990    -3.9610 ha         1 5JV       0.097500
     30 H8           1.3680     2.2870    -2.7670 h4         1 5JV       0.035800
     31 H9           2.7330     2.3180    -6.8910 ho         1 5JV       0.396000
     32 H10          4.5810     5.8410    -7.5200 hc         1 5JV       0.027700
     33 H11          3.5910     4.5080    -8.1320 hc         1 5JV       0.027700
     34 H12          5.1000     4.1680    -7.2720 hc         1 5JV       0.027700
     35 H13          2.3970     6.8860    -3.7500 h4         1 5JV       0.080100
     36 H14          1.9130     4.2450    -1.6030 h1         1 5JV       0.054200
     37 H15          0.3880     4.3940    -2.4860 h1         1 5JV       0.054200
@<TRIPOS>BOND
     1     7     6 2
     2     1     2 1
     3     4     2 1
     4     4     5 1
     5     2     3 1
     6     6     5 1
     7     6     8 1
     8     8     9 2
     9    12    11 1
    10     9    10 1
    11    11    10 ar
    12    11    13 ar
    13    14    13 1
    14    10    17 ar
    15    13    15 ar
    16    21    20 1
    17    17    18 1
    18    17    16 ar
    19    15    16 ar
    20    19    18 1
    21    19    20 1
    22    20    22 1
    23    20    23 1
    24     4    24 1
    25     4    25 1
    26     5    26 1
    27     5    27 1
    28     7    28 1
    29     7    29 1
    30     9    30 1
    31    12    31 1
    32    14    32 1
    33    14    33 1
    34    14    34 1
    35    16    35 1
    36    18    36 1
    37    18    37 1
@<TRIPOS>SUBSTRUCTURE
     1 5JV         1 TEMP              0 ****  ****    0 ROOT
