@<TRIPOS>MOLECULE
5JV
   37    38     1     0     0
SMALL
bcc


@<TRIPOS>ATOM
      1 OA           0.0000     0.0000     0.0000 o          1 5JV      -0.647000
      2 CA           1.2080     0.0000     0.0000 c2         1 5JV       0.411000
      3 OB           1.8780     0.0000     1.1640 o          1 5JV      -0.647000
      4 CB           1.9620    -0.0050    -1.3040 c3         1 5JV      -0.153000
      5 CG           0.9690    -0.0110    -2.4680 c3         1 5JV      -0.080000
      6 CD           1.7240    -0.0160    -3.7720 c2         1 5JV      -0.013000
      7 CE           1.9710    -1.1670    -4.3930 c2         1 5JV      -0.274000
      8 N2           2.1520     1.1550    -4.3140 n2         1 5JV      -0.087000
      9 C4A          1.9100     2.2830    -3.7050 c2         1 5JV      -0.229000
     10 C4           2.3750     3.5490    -4.2920 c3         1 5JV      -0.216000
     11 C3           3.0750     3.5690    -5.5110 c2         1 5JV       0.014000
     12 O3           3.3400     2.4150    -6.1750 oh         1 5JV      -0.242000
     13 C2           3.4910     4.7890    -6.0230 c2         1 5JV      -0.181000
     14 C2A          4.2440     4.8290    -7.3290 c3         1 5JV      -0.041000
     15 N1           3.2370     5.9120    -5.3840 n2         1 5JV      -0.073000
     16 C6           2.5830     5.9360    -4.2380 c2         1 5JV      -0.091000
     17 C5           2.1270     4.7740    -3.6550 c2         1 5JV       0.002000
     18 C5A          1.3750     4.8170    -2.3490 c3         1 5JV       0.156000
     19 O4P          1.2550     6.1730    -1.9130 os         1 5JV      -0.654000
     20 P            0.5080     6.5940    -0.5500 p5         1 5JV       0.924500
     21 O3P         -0.8680     6.0500    -0.5550 o          1 5JV      -0.714500
     22 O1P          1.3160     6.0010     0.7100 o          1 5JV      -0.714500
     23 O2P          0.4510     8.1990    -0.4440 o          1 5JV      -0.714500
     24 H2           2.5860    -0.8890    -1.3570 hc         1 5JV       0.043500
     25 H3           2.5850     0.8800    -1.3640 hc         1 5JV       0.043500
     26 H4           0.3470    -0.8960    -2.4070 hc         1 5JV       0.077000
     27 H5           0.3450     0.8730    -2.4150 hc         1 5JV       0.077000
     28 H6           1.6290    -2.0990    -3.9610 ha         1 5JV       0.074000
     29 H7           2.5130    -1.1710    -5.3310 ha         1 5JV       0.074000
     30 H8           2.9310     2.6430    -3.6540 DU         1 5JV       0.286000
     31 H9           2.7460     2.3280    -6.9030 ho         1 5JV       0.187000
     32 H10          3.5870     4.5220    -8.1330 hc         1 5JV       0.029000
     33 H11          4.5930     5.8380    -7.5130 hc         1 5JV       0.029000
     34 H12          5.0920     4.1570    -7.2770 hc         1 5JV       0.029000
     35 H13          2.3970     6.8860    -3.7500 h4         1 5JV       0.173000
     36 H14          0.3880     4.3940    -2.4860 h1         1 5JV       0.069500
     37 H15          1.9130     4.2450    -1.6030 h1         1 5JV       0.069500
@<TRIPOS>BOND
     1     1     2 1   
     2     2     3 1   
     3     2     4 1   
     4     4     5 1   
     5     4    24 1   
     6     4    25 1   
     7     5     6 1   
     8     5    26 1   
     9     5    27 1   
    10     6     7 1   
    11     6     8 1   
    12     7    28 1   
    13     7    29 1   
    14     8     9 1   
    15     9    10 1   
    16     9    30 1   
    17    10    11 1   
    18    10    17 1   
    19    10    30 1   
    20    11    12 1   
    21    11    13 1   
    22    12    31 1   
    23    13    14 1   
    24    13    15 1   
    25    14    32 1   
    26    14    33 1   
    27    14    34 1   
    28    15    16 1   
    29    16    17 1   
    30    16    35 1   
    31    17    18 1   
    32    18    19 1   
    33    18    36 1   
    34    18    37 1   
    35    19    20 1   
    36    20    21 1   
    37    20    22 1   
    38    20    23 1   
@<TRIPOS>SUBSTRUCTURE
     1 5JV         1 TEMP              0 ****  ****    0 ROOT
