@<TRIPOS>MOLECULE
molecule
   29    31     1     0     0
SMALL
bcc


@<TRIPOS>ATOM
      1 Cl1          0.0000     0.0000     0.0000 cl         1 5JW      -0.113400
      2 C16          1.7360     0.0000     0.0000 ca         1 5JW       0.025400
      3 C15          2.4250     0.0000     1.1990 ca         1 5JW      -0.076500
      4 C17          2.4250    -0.0040    -1.2020 ca         1 5JW      -0.130500
      5 C18          3.8060    -0.0040    -1.2170 ca         1 5JW      -0.109000
      6 C12          4.5150     0.0010    -0.0190 cp         1 5JW      -0.041500
      7 C02          5.9690     0.0040     0.2680 cp         1 5JW      -0.041500
      8 C01          7.0800     0.0010    -0.5690 ca         1 5JW      -0.109000
      9 C06          8.3520     0.0050    -0.0300 ca         1 5JW      -0.130500
     10 C13          3.8150     0.0010     1.1990 ca         1 5JW      -0.110900
     11 C14          4.8130     0.0010     2.2950 cc         1 5JW       0.425500
     12 C03          6.1530     0.0110     1.6610 ca         1 5JW      -0.110900
     13 C04          7.4380     0.0150     2.1890 ca         1 5JW      -0.076500
     14 C05          8.5330     0.0110     1.3430 ca         1 5JW       0.025400
     15 Cl2         10.1370     0.0160     2.0040 cl         1 5JW      -0.113400
     16 N14          4.5610     0.0040     3.5720 n2         1 5JW      -0.386200
     17 O29          3.2210    -0.0070     4.0290 os         1 5JW      -0.149300
     18 CB5          3.0920    -0.0030     5.4520 c3         1 5JW       0.022400
     19 CA1          1.6310    -0.0150     5.8240 c          1 5JW       0.897600
     20 OA2          1.2670    -0.0130     7.1160 o          1 5JW      -0.825800
     21 OA3          0.7870    -0.0260     4.9590 o          1 5JW      -0.825800
     22 H1           1.8830     0.0610     2.1350 ha         1 5JW       0.182500
     23 H2           1.8770    -0.0070    -2.1360 ha         1 5JW       0.134000
     24 H3           4.3370    -0.0070    -2.1610 ha         1 5JW       0.128000
     25 H4           6.9480    -0.0030    -1.6440 ha         1 5JW       0.128000
     26 H5           9.2150     0.0020    -0.6860 ha         1 5JW       0.134000
     27 H6           7.5840     0.0200     3.2630 ha         1 5JW       0.182500
     28 H7           3.5600     0.8870     5.8540 h1         1 5JW       0.032700
     29 H8           3.5760    -0.8820     5.8600 h1         1 5JW       0.032700
@<TRIPOS>BOND
     1    21    19 1
     2    20    19 1
     3    19    18 1
     4    18    17 1
     5    17    16 1
     6    16    11 2
     7    11    12 1
     8    11    10 1
     9    13    12 ar
    10    13    14 ar
    11     3    10 ar
    12     3     2 ar
    13    12     7 ar
    14    10     6 ar
    15     1     2 1
    16    15    14 1
    17    14     9 ar
    18     2     4 ar
    19     7     6 1
    20     7     8 ar
    21     6     5 ar
    22     9     8 ar
    23     4     5 ar
    24     3    22 1
    25     4    23 1
    26     5    24 1
    27     8    25 1
    28     9    26 1
    29    13    27 1
    30    18    28 1
    31    18    29 1
@<TRIPOS>SUBSTRUCTURE
     1 5JW         1 TEMP              0 ****  ****    0 ROOT
