@<TRIPOS>MOLECULE
5JW
   29    31     1     0     0
SMALL
bcc


@<TRIPOS>ATOM
      1 Cl1          0.0000     0.0000     0.0000 cl         1 5JW      -0.036900
      2 C16          1.7360     0.0000     0.0000 ca         1 5JW      -0.035100
      3 C15          2.4250     0.0000     1.1990 ca         1 5JW      -0.057000
      4 C17          2.4250    -0.0040    -1.2020 ca         1 5JW      -0.114500
      5 C18          3.8060    -0.0040    -1.2170 ca         1 5JW      -0.078000
      6 C12          4.5150     0.0010    -0.0190 cp         1 5JW      -0.040500
      7 C02          5.9690     0.0040     0.2680 cp         1 5JW      -0.040500
      8 C01          7.0800     0.0010    -0.5690 ca         1 5JW      -0.078000
      9 C06          8.3520     0.0050    -0.0300 ca         1 5JW      -0.114500
     10 C13          3.8150     0.0010     1.1990 ca         1 5JW      -0.110400
     11 C14          4.8130     0.0010     2.2950 cc         1 5JW       0.398500
     12 C03          6.1530     0.0110     1.6610 ca         1 5JW      -0.110400
     13 C04          7.4380     0.0150     2.1890 ca         1 5JW      -0.057000
     14 C05          8.5330     0.0110     1.3430 ca         1 5JW      -0.035100
     15 Cl2         10.1370     0.0160     2.0040 cl         1 5JW      -0.036900
     16 N14          4.5610     0.0040     3.5720 n2         1 5JW      -0.329200
     17 O29          3.2210    -0.0070     4.0290 os         1 5JW      -0.139300
     18 CB5          3.0920    -0.0030     5.4520 c3         1 5JW       0.098400
     19 CA1          1.6310    -0.0150     5.8240 c          1 5JW       0.977600
     20 OA2          1.2670    -0.0130     7.1160 o          1 5JW      -0.882300
     21 OA3          0.7870    -0.0260     4.9590 o          1 5JW      -0.882300
     22 H1           1.8830     0.0610     2.1350 ha         1 5JW       0.148500
     23 H2           1.8770    -0.0070    -2.1360 ha         1 5JW       0.105500
     24 H3           4.3370    -0.0070    -2.1610 ha         1 5JW       0.098500
     25 H4           6.9480    -0.0030    -1.6440 ha         1 5JW       0.098500
     26 H5           9.2150     0.0020    -0.6860 ha         1 5JW       0.105500
     27 H6           7.5840     0.0200     3.2630 ha         1 5JW       0.148500
     28 H7           3.5600     0.8870     5.8540 h1         1 5JW      -0.001300
     29 H8           3.5760    -0.8820     5.8600 h1         1 5JW      -0.001300
@<TRIPOS>BOND
     1     1     2 1   
     2     2     3 ar  
     3     2     4 ar  
     4     3    10 ar  
     5     3    22 1   
     6     4     5 ar  
     7     4    23 1   
     8     5     6 ar  
     9     5    24 1   
    10     6     7 1   
    11     6    10 ar  
    12     7     8 ar  
    13     7    12 ar  
    14     8     9 ar  
    15     8    25 1   
    16     9    14 ar  
    17     9    26 1   
    18    10    11 1   
    19    11    12 1   
    20    11    16 2   
    21    12    13 ar  
    22    13    14 ar  
    23    13    27 1   
    24    14    15 1   
    25    16    17 1   
    26    17    18 1   
    27    18    19 1   
    28    18    28 1   
    29    18    29 1   
    30    19    20 1   
    31    19    21 1   
@<TRIPOS>SUBSTRUCTURE
     1 5JW         1 TEMP              0 ****  ****    0 ROOT
