@<TRIPOS>MOLECULE
molecule
   44    46     1     0     0
SMALL
bcc


@<TRIPOS>ATOM
      1 O01          0.0000     0.0000     0.0000 oh         1 5JX      -0.522600
      2 C02          1.3590     0.0000     0.0000 ca         1 5JX       0.103100
      3 C03          2.0520     0.0000     1.2040 ca         1 5JX      -0.153750
      4 C04          3.4300     0.0020     1.2080 ca         1 5JX      -0.105500
      5 C05          4.1290     0.0010     0.0020 ca         1 5JX      -0.050800
      6 C06          5.6120     0.0010     0.0030 ce         1 5JX      -0.043400
      7 C07          6.3530     1.1650     0.5450 ca         1 5JX      -0.050800
      8 C08          7.1480     1.0190     1.6820 ca         1 5JX      -0.105500
      9 C09          7.8360     2.1030     2.1840 ca         1 5JX      -0.153750
     10 C10          7.7370     3.3390     1.5600 ca         1 5JX       0.103100
     11 O11          8.4170     4.4050     2.0580 oh         1 5JX      -0.522600
     12 C12          6.9470     3.4880     0.4280 ca         1 5JX      -0.153750
     13 C13          6.2610     2.4070    -0.0820 ca         1 5JX      -0.105500
     14 C14          6.2810    -1.0490    -0.4870 c2         1 5JX      -0.087400
     15 C15          5.5450    -2.2440    -1.0520 c3         1 5JX      -0.046200
     16 C16          6.1050    -2.5480    -2.4450 c3         1 5JX      -0.071900
     17 C17          7.6210    -2.7270    -2.3550 c3         1 5JX      -0.106700
     18 C18          8.1690    -3.1200    -3.7290 c3         1 5JX       0.164900
     19 F19          7.5810    -4.3220    -4.1380 f          1 5JX      -0.252300
     20 C20          8.2720    -1.4170    -1.9050 c3         1 5JX      -0.071900
     21 C21          7.7940    -1.0690    -0.4960 c3         1 5JX      -0.046200
     22 C22          3.4310     0.0010    -1.2050 ca         1 5JX      -0.105500
     23 C23          2.0520    -0.0050    -1.2020 ca         1 5JX      -0.153750
     24 H1          -0.3140     0.8890    -0.0020 ho         1 5JX       0.419000
     25 H2           1.5080     0.0000     2.1410 ha         1 5JX       0.141000
     26 H3           3.9700     0.0020     2.1480 ha         1 5JX       0.138500
     27 H5           7.2250     0.0540     2.1690 ha         1 5JX       0.138500
     28 H6           8.4540     1.9900     3.0670 ha         1 5JX       0.141000
     29 H7           7.8780     4.8570     2.6860 ho         1 5JX       0.419000
     30 H8           6.8740     4.4530    -0.0570 ha         1 5JX       0.141000
     31 H9           5.6450     2.5240    -0.9650 ha         1 5JX       0.138500
     32 H11          4.4880    -2.0170    -1.1280 hc         1 5JX       0.059450
     33 H12          5.6940    -3.1010    -0.4060 hc         1 5JX       0.059450
     34 H13          5.8790    -1.7240    -3.1120 hc         1 5JX       0.048700
     35 H14          5.6570    -3.4590    -2.8230 hc         1 5JX       0.048700
     36 H15          7.8480    -3.5050    -1.6360 hc         1 5JX       0.064700
     37 H16          9.2430    -3.2470    -3.6670 h1         1 5JX       0.043200
     38 H17          7.9380    -2.3420    -4.4460 h1         1 5JX       0.043200
     39 H18          9.3490    -1.5340    -1.9000 hc         1 5JX       0.048700
     40 H19          7.9930    -0.6230    -2.5860 hc         1 5JX       0.048700
     41 H20          8.1510    -1.8160     0.2020 hc         1 5JX       0.059450
     42 H21          8.1710    -0.0930    -0.2170 hc         1 5JX       0.059450
     43 H22          3.9720    -0.0010    -2.1440 ha         1 5JX       0.138500
     44 H23          1.5100    -0.0050    -2.1400 ha         1 5JX       0.141000
@<TRIPOS>BOND
     1     1     2 1
     2    23     2 ar
     3    23    22 ar
     4     2     3 ar
     5    22     5 ar
     6     3     4 ar
     7     5     4 ar
     8     5     6 1
     9     6     7 1
    10     6    14 2
    11     8     7 ar
    12     8     9 ar
    13     7    13 ar
    14     9    10 ar
    15    13    12 ar
    16    10    12 ar
    17    10    11 1
    18    15    14 1
    19    15    16 1
    20    14    21 1
    21    16    17 1
    22    21    20 1
    23    20    17 1
    24    17    18 1
    25    19    18 1
    26     1    24 1
    27     3    25 1
    28     4    26 1
    29     8    27 1
    30     9    28 1
    31    11    29 1
    32    12    30 1
    33    13    31 1
    34    15    32 1
    35    15    33 1
    36    16    34 1
    37    16    35 1
    38    17    36 1
    39    18    37 1
    40    18    38 1
    41    20    39 1
    42    20    40 1
    43    21    41 1
    44    21    42 1
    45    22    43 1
    46    23    44 1
@<TRIPOS>SUBSTRUCTURE
     1 5JX         1 TEMP              0 ****  ****    0 ROOT
