@<TRIPOS>MOLECULE
molecule
   47    49     1     0     0
SMALL
bcc


@<TRIPOS>ATOM
      1 O01          0.0000     0.0000     0.0000 oh         1 5JY      -0.522600
      2 C02          1.3590     0.0000     0.0000 ca         1 5JY       0.102600
      3 C03          2.0520     0.0000     1.2030 ca         1 5JY      -0.153750
      4 C04          3.4300    -0.0010     1.2070 ca         1 5JY      -0.105000
      5 C05          4.1300    -0.0020     0.0010 ca         1 5JY      -0.048800
      6 C06          5.6110    -0.0020     0.0000 ce         1 5JY      -0.046400
      7 C07          6.3540     1.1610     0.5420 ca         1 5JY      -0.048800
      8 C08          6.2620     2.4030    -0.0850 ca         1 5JY      -0.105000
      9 C09          6.9540     3.4820     0.4210 ca         1 5JY      -0.153750
     10 C10          7.7410     3.3350     1.5550 ca         1 5JY       0.102600
     11 O11          8.4210     4.4010     2.0520 oh         1 5JY      -0.522600
     12 C12          7.8340     2.1000     2.1830 ca         1 5JY      -0.153750
     13 C13          7.1400     1.0170     1.6850 ca         1 5JY      -0.105000
     14 C14          6.2810    -1.0540    -0.4890 c2         1 5JY      -0.084400
     15 C15          7.7930    -1.0750    -0.4990 c3         1 5JY      -0.047700
     16 C16          8.2670    -1.4260    -1.9130 c3         1 5JY      -0.072400
     17 C17          7.6150    -2.7370    -2.3560 c3         1 5JY      -0.072700
     18 C18          8.1570    -3.1350    -3.7300 c3         1 5JY      -0.080400
     19 C19          7.6030    -4.5070    -4.1200 c3         1 5JY      -0.093100
     20 C20          6.0980    -2.5590    -2.4410 c3         1 5JY      -0.072400
     21 C21          5.5430    -2.2530    -1.0410 c3         1 5JY      -0.047700
     22 C22          3.4310    -0.0020    -1.2060 ca         1 5JY      -0.105000
     23 C23          2.0520    -0.0060    -1.2030 ca         1 5JY      -0.153750
     24 H1          -0.3140     0.8890    -0.0020 ho         1 5JY       0.418500
     25 H2           1.5080     0.0010     2.1400 ha         1 5JY       0.140250
     26 H3           3.9700    -0.0010     2.1460 ha         1 5JY       0.138500
     27 H5           5.6480     2.5180    -0.9700 ha         1 5JY       0.138500
     28 H6           6.8830     4.4470    -0.0660 ha         1 5JY       0.140250
     29 H7           9.2760     4.4400     1.6570 ho         1 5JY       0.418500
     30 H8           8.4470     1.9890     3.0690 ha         1 5JY       0.140250
     31 H9           7.2130     0.0540     2.1750 ha         1 5JY       0.138500
     32 H11          8.1720    -0.0990    -0.2210 hc         1 5JY       0.056950
     33 H12          8.1500    -1.8230     0.1990 hc         1 5JY       0.056950
     34 H13          9.3440    -1.5410    -1.9140 hc         1 5JY       0.044450
     35 H14          7.9830    -0.6340    -2.5960 hc         1 5JY       0.044450
     36 H15          7.8450    -3.5120    -1.6350 hc         1 5JY       0.051700
     37 H16          9.2390    -3.1800    -3.6920 hc         1 5JY       0.041200
     38 H17          7.8520    -2.4000    -4.4660 hc         1 5JY       0.041200
     39 H18          8.2730    -4.9800    -4.8280 hc         1 5JY       0.033367
     40 H19          7.5160    -5.1260    -3.2360 hc         1 5JY       0.033367
     41 H20          6.6260    -4.3860    -4.5730 hc         1 5JY       0.033367
     42 H21          5.6490    -3.4710    -2.8150 hc         1 5JY       0.044450
     43 H22          5.8680    -1.7370    -3.1080 hc         1 5JY       0.044450
     44 H23          4.4850    -2.0300    -1.1100 hc         1 5JY       0.056950
     45 H24          5.7000    -3.1070    -0.3930 hc         1 5JY       0.056950
     46 H25          3.9710    -0.0050    -2.1450 ha         1 5JY       0.138500
     47 H26          1.5090    -0.0060    -2.1410 ha         1 5JY       0.140250
@<TRIPOS>BOND
     1     1     2 1   
     2     2     3 ar  
     3     2    23 ar  
     4     3     4 ar  
     5    23    22 ar  
     6     4     5 ar  
     7    22     5 ar  
     8     5     6 1   
     9     6     7 1   
    10     6    14 2   
    11    13     7 ar  
    12    13    12 ar  
    13     7     8 ar  
    14    12    10 ar  
    15     8     9 ar  
    16    10     9 ar  
    17    10    11 1   
    18    21    14 1   
    19    21    20 1   
    20    14    15 1   
    21    20    17 1   
    22    15    16 1   
    23    17    16 1   
    24    17    18 1   
    25    18    19 1   
    26     1    24 1   
    27     3    25 1   
    28     4    26 1   
    29     8    27 1   
    30     9    28 1   
    31    11    29 1   
    32    12    30 1   
    33    13    31 1   
    34    15    32 1   
    35    15    33 1   
    36    16    34 1   
    37    16    35 1   
    38    17    36 1   
    39    18    37 1   
    40    18    38 1   
    41    19    39 1   
    42    19    40 1   
    43    19    41 1   
    44    20    42 1   
    45    20    43 1   
    46    21    44 1   
    47    21    45 1   
    48    22    46 1   
    49    23    47 1   
@<TRIPOS>SUBSTRUCTURE
     1 5JY         1 TEMP              0 ****  ****    0 ROOT
