@<TRIPOS>MOLECULE
molecule
   87    93     1     0     0
SMALL
bcc


@<TRIPOS>ATOM
      1 C4           0.0000     0.0000     0.0000 c3         1 5JZ       0.103300
      2 C5           4.1250    11.9340     8.3320 ca         1 5JZ      -0.151000
      3 C6           4.9800    11.2450     7.4910 ca         1 5JZ      -0.115000
      4 C7           3.4930    11.2750     9.3690 ca         1 5JZ      -0.113000
      5 C8           5.2010     9.8960     7.6870 ca         1 5JZ      -0.161000
      6 C10          5.5950     5.6870     8.1250 ca         1 5JZ      -0.147600
      7 C13          6.4440    -1.7260     1.3400 ca         1 5JZ      -0.077000
      8 C15          5.6570     1.2460     7.1890 cc         1 5JZ       0.474700
      9 C17          3.0090     9.2390    10.7170 c3         1 5JZ      -0.030100
     10 C20          4.1560    -1.2490     0.4470 c3         1 5JZ      -0.038100
     11 C21          5.6580    -1.1880     0.3390 ca         1 5JZ      -0.129300
     12 C22          6.0700     5.1930     9.3470 ca         1 5JZ      -0.123000
     13 C24          5.4880     3.4500     7.2610 ca         1 5JZ      -0.088200
     14 C26          8.4160    -1.0800     0.1400 ca         1 5JZ       0.164100
     15 C28          5.9650     2.9600     8.4920 ca         1 5JZ       0.112400
     16 C9           6.2470    -0.5940    -0.7610 ca         1 5JZ      -0.090000
     17 C14          6.2520     3.8540     9.5290 ca         1 5JZ      -0.089000
     18 C12          7.6240    -0.5380    -0.8630 ca         1 5JZ      -0.151000
     19 C11          5.3040     4.8090     7.0820 ca         1 5JZ      -0.037000
     20 C16          2.9560     7.7290    10.4860 c3         1 5JZ      -0.098400
     21 C18          4.3700     7.2270    10.1620 c3         1 5JZ       0.088000
     22 C19          8.6700    -2.2580     2.3450 c3         1 5JZ       0.187700
     23 C1           3.3010     4.5790     1.3440 c3         1 5JZ       0.147400
     24 C23          3.7090     9.9240     9.5750 ca         1 5JZ      -0.119300
     25 C25          4.5640     9.2320     8.7300 ca         1 5JZ       0.067600
     26 C27          7.8220    -1.6730     1.2440 ca         1 5JZ      -0.197300
     27 C30          4.2650     1.1910     3.2350 ca         1 5JZ       1.036900
     28 C31          4.8390     2.3380     5.1450 ca         1 5JZ       0.886500
     29 C29          4.0860     3.4840     3.2980 ca         1 5JZ       1.003300
     30 C36          3.6460     0.0010     1.1680 c3         1 5JZ       0.178500
     31 C33          5.3980     7.1380     7.9440 c          1 5JZ       0.686700
     32 C34          2.1380     0.0000     1.1670 c          1 5JZ       0.637100
     33 C35         10.5260    -1.2610     1.2210 c3         1 5JZ       0.344600
     34 N37          6.0430     1.6120     8.3770 nd         1 5JZ      -0.598100
     35 N40          4.7080     1.1910     4.4880 nb         1 5JZ      -0.899000
     36 N38          3.9540     2.3390     2.6400 nb         1 5JZ      -0.929000
     37 N39          4.5280     3.4840     4.5500 nb         1 5JZ      -0.859000
     38 N41          1.4650     0.0000     0.0000 ns         1 5JZ      -0.589900
     39 N42          4.1330     0.0000     2.5490 nu         1 5JZ      -0.855900
     40 N43          5.3010     2.3390     6.4550 na         1 5JZ      -0.168100
     41 N44          4.7950     7.8620     8.9080 n          1 5JZ      -0.366000
     42 O46          5.7800     7.6810     6.9250 o          1 5JZ      -0.589100
     43 O47          1.5320    -0.0000     2.2180 o          1 5JZ      -0.589100
     44 O48         10.0090    -2.4270     1.8720 os         1 5JZ      -0.421600
     45 O49          9.7700    -1.0290     0.0290 os         1 5JZ      -0.337900
     46 O45          3.7700     4.6520     2.6920 os         1 5JZ      -0.401100
     47 H4          -0.3610     0.8810     0.5160 h1         1 5JZ       0.044033
     48 H4A         -0.3610    -0.8880     0.5050 h1         1 5JZ       0.044033
     49 H4B         -0.3610     0.0060    -1.0210 h1         1 5JZ       0.044033
     50 H6           5.4740    11.7620     6.6780 ha         1 5JZ       0.131000
     51 H7           2.8250    11.8200    10.0250 ha         1 5JZ       0.127000
     52 H8           5.8700     9.3550     7.0290 ha         1 5JZ       0.201000
     53 H13          5.9800    -2.2360     2.1760 ha         1 5JZ       0.129000
     54 H15          5.6230     0.2220     6.8360 h5         1 5JZ       0.094800
     55 H17          3.5470     9.4390    11.6360 hc         1 5JZ       0.051700
     56 H17A         1.9990     9.6220    10.7980 hc         1 5JZ       0.051700
     57 H20          3.7240    -1.2950    -0.5460 hc         1 5JZ       0.061700
     58 H20A         3.8700    -2.1310     1.0060 hc         1 5JZ       0.061700
     59 H22          6.2950     5.8810    10.1540 ha         1 5JZ       0.141000
     60 H32          2.6590     5.9330    -0.1950 hc         1 5JZ       0.051700
     61 H32A         3.8930     6.5930     0.8870 hc         1 5JZ       0.051700
     62 H32B         2.2210     6.4340     1.4440 hc         1 5JZ       0.051700
     63 H9           5.6290    -0.1720    -1.5450 ha         1 5JZ       0.131000
     64 H14          6.6200     3.4820    10.4780 ha         1 5JZ       0.147000
     65 H12          8.0860    -0.0720    -1.7250 ha         1 5JZ       0.148000
     66 H11          4.9370     5.1890     6.1360 ha         1 5JZ       0.184000
     67 H16          2.5930     7.2380    11.3810 hc         1 5JZ       0.056200
     68 H16A         2.2960     7.5140     9.6540 hc         1 5JZ       0.056200
     69 H18          5.0470     7.5040    10.9610 h1         1 5JZ       0.061700
     70 H18A         4.3570     6.1510    10.0420 h1         1 5JZ       0.061700
     71 H19          8.6710    -1.5850     3.1950 h1         1 5JZ       0.063200
     72 H19A         8.2670    -3.2190     2.6380 h1         1 5JZ       0.063200
     73 H1           4.0620     4.1250     0.7210 h1         1 5JZ       0.048200
     74 H1A          2.3990     3.9790     1.3080 h1         1 5JZ       0.048200
     75 H36          4.0070     0.8860     0.6570 h1         1 5JZ       0.099700
     76 HN41         1.9650     0.0390    -0.8660 hn         1 5JZ       0.310500
     77 HN42         4.3240    -0.8670     3.0110 hn         1 5JZ       0.467800
     78 C2          10.3970    -0.0540     2.1530 c3         1 5JZ      -0.107100
     79 C3          11.9980    -1.4810     0.8650 c3         1 5JZ      -0.107100
     80 H5           3.9520    12.9920     8.1770 ha         1 5JZ       0.126000
     81 C32          2.9960     5.9870     0.8330 c3         1 5JZ      -0.097100
     82 H2          11.0560     0.7360     1.8130 hc         1 5JZ       0.057367
     83 H2A         10.6720    -0.3440     3.1600 hc         1 5JZ       0.057367
     84 H2B          9.3740     0.3000     2.1460 hc         1 5JZ       0.057367
     85 H3          12.5740    -1.6080     1.7740 hc         1 5JZ       0.057367
     86 H3A         12.3690    -0.6220     0.3200 hc         1 5JZ       0.057367
     87 H3B         12.0920    -2.3680     0.2500 hc         1 5JZ       0.057367
@<TRIPOS>BOND
     1     1    38 1
     2     2     3 ar
     3     2     4 ar
     4     3     5 ar
     5     4    24 ar
     6     5    25 ar
     7     6    12 ar
     8     6    19 ar
     9     6    31 1
    10     7    11 ar
    11     7    26 ar
    12     8    34 2
    13     8    40 1
    14     9    20 1
    15     9    24 1
    16    10    11 1
    17    10    30 1
    18    11    16 ar
    19    12    17 ar
    20    13    15 ar
    21    13    19 ar
    22    13    40 1
    23    14    18 ar
    24    14    26 ar
    25    14    45 1
    26    15    17 ar
    27    15    34 1
    28    81    23 1
    29    78    33 1
    30    79    33 1
    31    16    18 ar
    32    20    21 1
    33    21    41 1
    34    22    26 1
    35    22    44 1
    36    23    46 1
    37    24    25 ar
    38    25    41 1
    39    27    35 ar
    40    27    36 ar
    41    27    39 1
    42    28    35 ar
    43    28    37 ar
    44    28    40 1
    45    29    36 ar
    46    29    37 ar
    47    29    46 1
    48    30    32 1
    49    30    39 1
    50    31    41 1
    51    31    42 2
    52    32    38 1
    53    32    43 2
    54    33    44 1
    55    33    45 1
    56     1    47 1
    57     1    48 1
    58     1    49 1
    59     2    80 1
    60     3    50 1
    61     4    51 1
    62     5    52 1
    63     7    53 1
    64     8    54 1
    65     9    55 1
    66     9    56 1
    67    10    57 1
    68    10    58 1
    69    12    59 1
    70    81    60 1
    71    81    61 1
    72    81    62 1
    73    78    82 1
    74    78    83 1
    75    78    84 1
    76    79    85 1
    77    79    86 1
    78    79    87 1
    79    16    63 1
    80    17    64 1
    81    18    65 1
    82    19    66 1
    83    20    67 1
    84    20    68 1
    85    21    69 1
    86    21    70 1
    87    22    71 1
    88    22    72 1
    89    23    73 1
    90    23    74 1
    91    30    75 1
    92    38    76 1
    93    39    77 1
@<TRIPOS>SUBSTRUCTURE
     1 5JZ         1 TEMP              0 ****  ****    0 ROOT
