@<TRIPOS>MOLECULE
molecule
   44    46     1     0     0
SMALL
bcc


@<TRIPOS>ATOM
      1 O01          0.0000     0.0000     0.0000 oh         1 5K0      -0.523100
      2 C02          1.3590     0.0000     0.0000 ca         1 5K0       0.102600
      3 C03          2.0520     0.0000     1.2030 ca         1 5K0      -0.154000
      4 C04          3.4310     0.0010     1.2060 ca         1 5K0      -0.105000
      5 C05          4.1300     0.0000    -0.0010 ca         1 5K0      -0.048800
      6 C06          5.6120     0.0010    -0.0020 ce         1 5K0      -0.046400
      7 C07          6.3540     1.1640     0.5410 ca         1 5K0      -0.048800
      8 C08          6.2610     2.4060    -0.0870 ca         1 5K0      -0.105000
      9 C09          6.9520     3.4870     0.4200 ca         1 5K0      -0.154000
     10 C10          7.7380     3.3390     1.5540 ca         1 5K0       0.102600
     11 O11          8.4180     4.4050     2.0520 oh         1 5K0      -0.523100
     12 C12          7.8330     2.1040     2.1820 ca         1 5K0      -0.154000
     13 C13          7.1400     1.0200     1.6830 ca         1 5K0      -0.105000
     14 C14          6.2820    -1.0500    -0.4920 c2         1 5K0      -0.084400
     15 C15          5.5440    -2.2450    -1.0560 c3         1 5K0      -0.048200
     16 C16          6.0950    -3.5140    -0.3950 c3         1 5K0      -0.071400
     17 C17          7.6140    -3.5640    -0.5800 c3         1 5K0      -0.075700
     18 C18          8.1520    -4.8740    -0.0030 c3         1 5K0      -0.088100
     19 C19          8.2630    -2.3840     0.1430 c3         1 5K0      -0.071400
     20 C20          7.7940    -1.0710    -0.5020 c3         1 5K0      -0.048200
     21 C21          3.4310    -0.0000    -1.2080 ca         1 5K0      -0.105000
     22 C22          2.0510    -0.0060    -1.2040 ca         1 5K0      -0.154000
     23 H1          -0.3140     0.8890    -0.0010 ho         1 5K0       0.418500
     24 H2           1.5090     0.0000     2.1400 ha         1 5K0       0.140500
     25 H3           3.9710     0.0010     2.1450 ha         1 5K0       0.138500
     26 H5           5.6480     2.5210    -0.9730 ha         1 5K0       0.138500
     27 H6           6.8800     4.4520    -0.0680 ha         1 5K0       0.140500
     28 H7           9.2720     4.4460     1.6560 ho         1 5K0       0.418500
     29 H8           8.4460     1.9930     3.0680 ha         1 5K0       0.140500
     30 H9           7.2150     0.0570     2.1730 ha         1 5K0       0.138500
     31 H11          5.7000    -2.2960    -2.1260 hc         1 5K0       0.056200
     32 H12          4.4860    -2.1530    -0.8400 hc         1 5K0       0.056200
     33 H13          5.8620    -3.4990     0.6620 hc         1 5K0       0.044450
     34 H14          5.6470    -4.3840    -0.8580 hc         1 5K0       0.044450
     35 H15          7.8470    -3.5090    -1.6370 hc         1 5K0       0.050700
     36 H16          7.9170    -4.9270     1.0530 hc         1 5K0       0.034033
     37 H17          7.6950    -5.7110    -0.5170 hc         1 5K0       0.034033
     38 H18          9.2270    -4.9130    -0.1360 hc         1 5K0       0.034033
     39 H19          9.3410    -2.4600     0.0610 hc         1 5K0       0.044450
     40 H20          7.9730    -2.3970     1.1860 hc         1 5K0       0.044450
     41 H21          8.1520    -1.0190    -1.5230 hc         1 5K0       0.056200
     42 H22          8.1730    -0.2310     0.0670 hc         1 5K0       0.056200
     43 H23          3.9700    -0.0030    -2.1470 ha         1 5K0       0.138500
     44 H24          1.5070    -0.0070    -2.1410 ha         1 5K0       0.140500
@<TRIPOS>BOND
     1     1     2 1
     2    22     2 ar
     3    22    21 ar
     4     2     3 ar
     5    21     5 ar
     6     3     4 ar
     7     5     4 ar
     8     5     6 1
     9     6     7 1
    10     6    14 2
    11    13     7 ar
    12    13    12 ar
    13     7     8 ar
    14    12    10 ar
    15     8     9 ar
    16    10     9 ar
    17    10    11 1
    18    15    14 1
    19    15    16 1
    20    14    20 1
    21    16    17 1
    22    20    19 1
    23    17    19 1
    24    17    18 1
    25     1    23 1
    26     3    24 1
    27     4    25 1
    28     8    26 1
    29     9    27 1
    30    11    28 1
    31    12    29 1
    32    13    30 1
    33    15    31 1
    34    15    32 1
    35    16    33 1
    36    16    34 1
    37    17    35 1
    38    18    36 1
    39    18    37 1
    40    18    38 1
    41    19    39 1
    42    19    40 1
    43    20    41 1
    44    20    42 1
    45    21    43 1
    46    22    44 1
@<TRIPOS>SUBSTRUCTURE
     1 5K0         1 TEMP              0 ****  ****    0 ROOT
