@<TRIPOS>MOLECULE
molecule
   45    47     1     0     0
SMALL
bcc


@<TRIPOS>ATOM
      1 O01          0.0000     0.0000     0.0000 oh         1 5K1      -0.522600
      2 C02          1.3590     0.0000     0.0000 ca         1 5K1       0.104600
      3 C03          2.0520     0.0000     1.2040 ca         1 5K1      -0.153500
      4 C04          3.4300     0.0000     1.2070 ca         1 5K1      -0.104500
      5 C05          4.1290     0.0000     0.0010 ca         1 5K1      -0.052800
      6 C06          5.6120    -0.0000     0.0010 ce         1 5K1      -0.037400
      7 C07          6.3530     1.1630     0.5440 ca         1 5K1      -0.052800
      8 C08          7.1490     1.0160     1.6800 ca         1 5K1      -0.104500
      9 C09          7.8370     2.1000     2.1820 ca         1 5K1      -0.153500
     10 C10          7.7380     3.3370     1.5590 ca         1 5K1       0.104600
     11 O11          8.4180     4.4030     2.0570 oh         1 5K1      -0.522600
     12 C12          6.9480     3.4860     0.4280 ca         1 5K1      -0.153500
     13 C13          6.2610     2.4050    -0.0830 ca         1 5K1      -0.104500
     14 C14          6.2810    -1.0500    -0.4890 c2         1 5K1      -0.089400
     15 C15          5.5440    -2.2450    -1.0530 c3         1 5K1      -0.049200
     16 C16          6.1040    -2.5490    -2.4470 c3         1 5K1      -0.077400
     17 C17          7.6200    -2.7290    -2.3580 c3         1 5K1      -0.080400
     18 C18          8.2720    -1.4200    -1.9070 c3         1 5K1       0.034400
     19 S19         10.0750    -1.6110    -1.9050 ss         1 5K1      -0.356200
     20 C20         10.4610    -1.8630    -3.6610 c3         1 5K1       0.005000
     21 C21          7.7930    -1.0720    -0.4980 c3         1 5K1      -0.027200
     22 C22          3.4300     0.0010    -1.2060 ca         1 5K1      -0.104500
     23 C23          2.0510    -0.0060    -1.2020 ca         1 5K1      -0.153500
     24 H1          -0.3140     0.8890    -0.0010 ho         1 5K1       0.419000
     25 H2           1.5080    -0.0000     2.1410 ha         1 5K1       0.141250
     26 H3           3.9700     0.0000     2.1460 ha         1 5K1       0.138000
     27 H5           7.2260     0.0510     2.1660 ha         1 5K1       0.138000
     28 H6           8.4560     1.9870     3.0640 ha         1 5K1       0.141250
     29 H7           7.8790     4.8540     2.6850 ho         1 5K1       0.419000
     30 H8           6.8750     4.4520    -0.0580 ha         1 5K1       0.141250
     31 H9           5.6440     2.5220    -0.9660 ha         1 5K1       0.138000
     32 H11          4.4880    -2.0190    -1.1280 hc         1 5K1       0.060200
     33 H12          5.6940    -3.1020    -0.4080 hc         1 5K1       0.060200
     34 H13          5.8770    -1.7240    -3.1130 hc         1 5K1       0.044200
     35 H14          5.6540    -3.4590    -2.8250 hc         1 5K1       0.044200
     36 H15          8.0060    -3.0050    -3.3320 hc         1 5K1       0.050200
     37 H16          7.8470    -3.5080    -1.6410 hc         1 5K1       0.050200
     38 H17          7.9900    -0.6250    -2.5880 h1         1 5K1       0.068700
     39 H18         11.4760    -1.5410    -3.8570 h1         1 5K1       0.059033
     40 H19         10.3610    -2.9140    -3.9050 h1         1 5K1       0.059033
     41 H20          9.7750    -1.2840    -4.2680 h1         1 5K1       0.059033
     42 H21          8.1490    -1.8200     0.2000 hc         1 5K1       0.069700
     43 H22          8.1710    -0.0960    -0.2180 hc         1 5K1       0.069700
     44 H23          3.9700    -0.0020    -2.1450 ha         1 5K1       0.138000
     45 H24          1.5080    -0.0050    -2.1400 ha         1 5K1       0.141250
@<TRIPOS>BOND
     1     1     2 1   
     2     2    23 ar  
     3     2     3 ar  
     4    23    22 ar  
     5     3     4 ar  
     6    22     5 ar  
     7     4     5 ar  
     8     5     6 1   
     9     6     7 1   
    10     6    14 2   
    11     7    13 ar  
    12     7     8 ar  
    13    13    12 ar  
    14     8     9 ar  
    15    12    10 ar  
    16     9    10 ar  
    17    10    11 1   
    18    15    14 1   
    19    15    16 1   
    20    14    21 1   
    21    16    17 1   
    22    21    18 1   
    23    17    18 1   
    24    18    19 1   
    25    19    20 1   
    26     1    24 1   
    27     3    25 1   
    28     4    26 1   
    29     8    27 1   
    30     9    28 1   
    31    11    29 1   
    32    12    30 1   
    33    13    31 1   
    34    15    32 1   
    35    15    33 1   
    36    16    34 1   
    37    16    35 1   
    38    17    36 1   
    39    17    37 1   
    40    18    38 1   
    41    20    39 1   
    42    20    40 1   
    43    20    41 1   
    44    21    42 1   
    45    21    43 1   
    46    22    44 1   
    47    23    45 1   
@<TRIPOS>SUBSTRUCTURE
     1 5K1         1 TEMP              0 ****  ****    0 ROOT
