@<TRIPOS>MOLECULE
molecule
   45    48     1     0     0
SMALL
bcc


@<TRIPOS>ATOM
      1 C01          0.0000     0.0000     0.0000 c3         1 5K2      -0.048200
      2 C02          1.5270     0.0000     0.0000 c3         1 5K2      -0.029100
      3 C03          2.0760     0.0000     1.4010 ca         1 5K2      -0.074300
      4 C04          3.3830    -0.4500     1.5660 ca         1 5K2      -0.129000
      5 C05          3.9680    -0.4720     2.8150 ca         1 5K2      -0.129000
      6 C06          3.2530    -0.0400     3.9170 ca         1 5K2      -0.128000
      7 C07          1.9570     0.4040     3.7560 ca         1 5K2      -0.127000
      8 C08          1.3630     0.4190     2.5010 ca         1 5K2      -0.069300
      9 C09         -0.0680     0.8870     2.4200 c3         1 5K2       0.001100
     10 C10         -0.4590     1.0690     0.9720 c2         1 5K2      -0.087400
     11 C11         -1.1760     2.1250     0.5670 ce         1 5K2      -0.040400
     12 C12         -1.6070     3.1490     1.5490 ca         1 5K2      -0.050800
     13 C13         -2.4980     2.8110     2.5660 ca         1 5K2      -0.104750
     14 C14         -2.8950     3.7660     3.4780 ca         1 5K2      -0.154000
     15 C15         -2.4100     5.0640     3.3830 ca         1 5K2       0.103100
     16 O01         -2.8040     6.0030     4.2830 oh         1 5K2      -0.523100
     17 C16         -1.5220     5.4040     2.3710 ca         1 5K2      -0.154000
     18 C17         -1.1160     4.4510     1.4590 ca         1 5K2      -0.104750
     19 C18         -1.5390     2.2690    -0.8630 ca         1 5K2      -0.050800
     20 C19         -0.5440     2.4540    -1.8220 ca         1 5K2      -0.104750
     21 C20         -0.8850     2.5830    -3.1520 ca         1 5K2      -0.154000
     22 C21         -2.2180     2.5280    -3.5370 ca         1 5K2       0.103100
     23 O02         -2.5510     2.6550    -4.8480 oh         1 5K2      -0.523100
     24 C22         -3.2120     2.3440    -2.5840 ca         1 5K2      -0.154000
     25 C23         -2.8770     2.2150    -1.2520 ca         1 5K2      -0.104750
     26 H1          -0.3550     0.2470    -0.9930 hc         1 5K2       0.062200
     27 H2           1.8690     0.8970    -0.5020 hc         1 5K2       0.053200
     28 H3           1.8690    -0.8970    -0.5020 hc         1 5K2       0.053200
     29 H4           3.9450    -0.7900     0.7050 ha         1 5K2       0.128000
     30 H5           4.9870    -0.8230     2.9320 ha         1 5K2       0.129000
     31 H6           3.7070    -0.0550     4.9010 ha         1 5K2       0.130000
     32 H7           1.3960     0.7430     4.6190 ha         1 5K2       0.130000
     33 H8          -0.1680     1.8310     2.9410 hc         1 5K2       0.067200
     34 H9          -0.7150     0.1470     2.8760 hc         1 5K2       0.067200
     35 H11         -2.8770     1.7990     2.6400 ha         1 5K2       0.138750
     36 H12         -3.5880     3.5040     4.2690 ha         1 5K2       0.141000
     37 H13         -3.5790     6.4370     3.9650 ho         1 5K2       0.419000
     38 H14         -1.1430     6.4160     2.3010 ha         1 5K2       0.141000
     39 H15         -0.4240     4.7170     0.6700 ha         1 5K2       0.138750
     40 H16          0.4960     2.4980    -1.5230 ha         1 5K2       0.138750
     41 H17         -0.1120     2.7270    -3.8970 ha         1 5K2       0.141000
     42 H18         -2.6940     3.5640    -5.0490 ho         1 5K2       0.419000
     43 H19         -4.2510     2.3010    -2.8880 ha         1 5K2       0.141000
     44 H20         -3.6520     2.0710    -0.5100 ha         1 5K2       0.138750
     45 H21         -0.3550    -0.9650     0.3400 hc         1 5K2       0.062200
@<TRIPOS>BOND
     1    23    22 1
     2    21    22 ar
     3    21    20 ar
     4    22    24 ar
     5    20    19 ar
     6    24    25 ar
     7    19    25 ar
     8    19    11 1
     9    11    12 1
    10    11    10 2
    11    12    18 ar
    12    12    13 ar
    13    18    17 ar
    14    13    14 ar
    15    17    15 ar
    16    14    15 ar
    17    15    16 1
    18     9    10 1
    19     9     8 1
    20    10     1 1
    21     7     8 ar
    22     7     6 ar
    23     8     3 ar
    24     6     5 ar
    25     1     2 1
    26     3     2 1
    27     3     4 ar
    28     5     4 ar
    29     1    26 1
    30     2    27 1
    31     2    28 1
    32     4    29 1
    33     5    30 1
    34     6    31 1
    35     7    32 1
    36     9    33 1
    37     9    34 1
    38    13    35 1
    39    14    36 1
    40    16    37 1
    41    17    38 1
    42    18    39 1
    43    20    40 1
    44    21    41 1
    45    23    42 1
    46    24    43 1
    47    25    44 1
    48     1    45 1
@<TRIPOS>SUBSTRUCTURE
     1 5K2         1 TEMP              0 ****  ****    0 ROOT
