@<TRIPOS>MOLECULE
5K3
   27    27     1     0     0
SMALL
bcc


@<TRIPOS>ATOM
      1 O2         -0.0300    0.0310    0.1420 oh        1 5K3     -0.623800
      2 C1          1.3520    0.1340   -0.1000 c3        1 5K3      0.324900
      3 O           1.9490    0.2530    1.1830 os        1 5K3     -0.456600
      4 C           1.7240    1.5090    1.8040 c3        1 5K3      0.119700
      5 C2          1.9540   -1.1060   -0.7590 c3        1 5K3     -0.101400
      6 C3          1.4500   -1.2400   -2.1810 c3        1 5K3     -0.032100
      7 C4          1.9570   -2.4780   -2.8300 ca        1 5K3     -0.115300
      8 C9          1.0930   -3.5500   -3.0890 ca        1 5K3     -0.090000
      9 C8          1.5560   -4.7070   -3.7060 ca        1 5K3     -0.183000
     10 C7          2.9100   -4.7910   -4.0690 ca        1 5K3      0.122100
     11 O1          3.3130   -5.9600   -4.6750 oh        1 5K3     -0.498100
     12 C6          3.7880   -3.7270   -3.8180 ca        1 5K3     -0.183000
     13 C5          3.3030   -2.5780   -3.2000 ca        1 5K3     -0.090000
     14 H2         -0.1760   -0.7380    0.7070 ho        1 5K3      0.414000
     15 H1          1.4820    1.0610   -0.7240 h2        1 5K3      0.074700
     16 H21C        1.6810   -2.0130   -0.1610 hc        1 5K3      0.062700
     17 H22C        3.0710   -1.0150   -0.7450 hc        1 5K3      0.062700
     18 HC1         2.1730    1.4010    2.8220 h1        1 5K3      0.037700
     19 HC2         0.6290    1.7210    1.8720 h1        1 5K3      0.037700
     20 HC3         2.2370    2.3200    1.2310 h1        1 5K3      0.037700
     21 H31C        0.3260   -1.2360   -2.1710 hc        1 5K3      0.054200
     22 H32C        1.7770   -0.3460   -2.7790 hc        1 5K3      0.054200
     23 H9          0.0330   -3.4770   -2.8040 ha        1 5K3      0.134500
     24 H5          3.9860   -1.7380   -3.0000 ha        1 5K3      0.134500
     25 H8          0.8850   -5.5520   -3.9130 ha        1 5K3      0.142000
     26 HA          4.2580   -5.8840   -4.8700 ho        1 5K3      0.419000
     27 H6          4.8460   -3.8010   -4.1060 ha        1 5K3      0.142000
@<TRIPOS>BOND
     1    1    2 1   
     2    1   14 1   
     3    2    3 1   
     4    2    5 1   
     5    2   15 1   
     6    3    4 1   
     7    4   18 1   
     8    4   19 1   
     9    4   20 1   
    10    5    6 1   
    11    5   16 1   
    12    5   17 1   
    13    6    7 1   
    14    6   21 1   
    15    6   22 1   
    16    7    8 ar  
    17    7   13 ar  
    18    8    9 ar  
    19    8   23 1   
    20    9   10 ar  
    21    9   25 1   
    22   10   11 1   
    23   10   12 ar  
    24   11   26 1   
    25   12   13 ar  
    26   12   27 1   
    27   13   24 1   
@<TRIPOS>SUBSTRUCTURE
     1 5K3         1 TEMP              0 ****  ****    0 ROOT
