@<TRIPOS>MOLECULE
molecule
   27    27     1     0     0
SMALL
bcc


@<TRIPOS>ATOM
      1 O2           0.0000     0.0000     0.0000 oh         1 5K3      -0.618800
      2 C1           1.4280     0.0000     0.0000 c3         1 5K3       0.338900
      3 O            1.9050     0.0000     1.3480 os         1 5K3      -0.426600
      4 C            1.5780     1.1830     2.0790 c3         1 5K3       0.126700
      5 C2           1.9380    -1.2490    -0.7210 c3         1 5K3      -0.070400
      6 C3           1.5340    -1.1870    -2.1960 c3         1 5K3      -0.036100
      7 C4           2.0360    -2.4180    -2.9060 ca         1 5K3      -0.091300
      8 C9           1.2420    -3.5470    -2.9740 ca         1 5K3      -0.111000
      9 C8           1.7000    -4.6770    -3.6240 ca         1 5K3      -0.150500
     10 C7           2.9570    -4.6770    -4.2100 ca         1 5K3       0.102100
     11 O1           3.4110    -5.7860    -4.8510 oh         1 5K3      -0.523100
     12 C6           3.7530    -3.5420    -4.1410 ca         1 5K3      -0.150500
     13 C5           3.2880    -2.4130    -3.4930 ca         1 5K3      -0.111000
     14 H2          -0.3140     0.8210    -0.3410 ho         1 5K3       0.402000
     15 H1           1.7890     0.8850    -0.5110 h2         1 5K3       0.016700
     16 H21C         1.5070    -2.1310    -0.2650 hc         1 5K3       0.067200
     17 H22C         3.0180    -1.2940    -0.6450 hc         1 5K3       0.067200
     18 HC1          2.0930     1.1710     3.0330 h1         1 5K3       0.032033
     19 HC2          1.8850     2.0540     1.5140 h1         1 5K3       0.032033
     20 HC3          0.5080     1.2200     2.2470 h1         1 5K3       0.032033
     21 H31C         1.9670    -0.3050    -2.6520 hc         1 5K3       0.051700
     22 H32C         0.4540    -1.1410    -2.2730 hc         1 5K3       0.051700
     23 H9           0.2600    -3.5470    -2.5170 ha         1 5K3       0.135000
     24 H5           3.9080    -1.5270    -3.4390 ha         1 5K3       0.135000
     25 H8           1.0770    -5.5620    -3.6770 ha         1 5K3       0.140500
     26 HA           3.8680    -6.3380    -4.2390 ho         1 5K3       0.419000
     27 H6           4.7340    -3.5390    -4.5990 ha         1 5K3       0.140500
@<TRIPOS>BOND
     1     1     2 1
     2     2     3 1
     3     2     5 1
     4     3     4 1
     5     5     6 1
     6     6     7 1
     7     7     8 ar
     8     7    13 ar
     9     8     9 ar
    10     9    10 ar
    11    10    11 1
    12    10    12 ar
    13    12    13 ar
    14     1    14 1
    15     2    15 1
    16     5    16 1
    17     5    17 1
    18     4    18 1
    19     4    19 1
    20     4    20 1
    21     6    21 1
    22     6    22 1
    23     8    23 1
    24    13    24 1
    25     9    25 1
    26    11    26 1
    27    12    27 1
@<TRIPOS>SUBSTRUCTURE
     1 5K3         1 TEMP              0 ****  ****    0 ROOT
