@<TRIPOS>MOLECULE
molecule
   47    49     1     0     0
SMALL
bcc


@<TRIPOS>ATOM
      1 O01          0.0000     0.0000     0.0000 oh         1 5K4      -0.523100
      2 C02          1.3580     0.0000     0.0000 ca         1 5K4       0.102100
      3 C03          2.0510     0.0000     1.2040 ca         1 5K4      -0.154000
      4 C04          3.4300    -0.0000     1.2070 ca         1 5K4      -0.105500
      5 C05          4.1290     0.0000     0.0000 ca         1 5K4      -0.047800
      6 C06          5.6110    -0.0010     0.0010 ce         1 5K4      -0.049400
      7 C07          6.3530     1.1640     0.5440 ca         1 5K4      -0.047800
      8 C08          6.2600     2.4050    -0.0830 ca         1 5K4      -0.105500
      9 C09          6.9510     3.4860     0.4240 ca         1 5K4      -0.154000
     10 C10          7.7380     3.3380     1.5590 ca         1 5K4       0.102100
     11 O11          8.4160     4.4040     2.0570 oh         1 5K4      -0.523100
     12 C12          7.8310     2.1030     2.1860 ca         1 5K4      -0.154000
     13 C13          7.1380     1.0190     1.6870 ca         1 5K4      -0.105500
     14 C14          6.2810    -1.0510    -0.4880 c2         1 5K4      -0.081400
     15 C15          5.5440    -2.2480    -1.0480 c3         1 5K4      -0.049200
     16 C16          6.0990    -2.5540    -2.4420 c3         1 5K4      -0.076400
     17 C17          7.6160    -2.7300    -2.3580 c3         1 5K4      -0.078400
     18 C18          8.2670    -1.4200    -1.9140 c3         1 5K4      -0.065700
     19 C19          9.7890    -1.5780    -1.9180 c3         1 5K4      -0.080400
     20 C20         10.2730    -1.8050    -3.3510 c3         1 5K4      -0.092100
     21 C21          7.7940    -1.0680    -0.5040 c3         1 5K4      -0.043200
     22 C22          3.4300    -0.0000    -1.2060 ca         1 5K4      -0.105500
     23 C23          2.0510    -0.0050    -1.2030 ca         1 5K4      -0.154000
     24 H1          -0.3140     0.8890    -0.0020 ho         1 5K4       0.418500
     25 H2           1.5070    -0.0000     2.1410 ha         1 5K4       0.140250
     26 H3           3.9700    -0.0000     2.1470 ha         1 5K4       0.138500
     27 H5           5.6460     2.5210    -0.9680 ha         1 5K4       0.138500
     28 H6           6.8790     4.4510    -0.0620 ha         1 5K4       0.140250
     29 H7           7.8750     4.8570     2.6830 ho         1 5K4       0.418500
     30 H8           8.4430     1.9910     3.0720 ha         1 5K4       0.140250
     31 H9           7.2110     0.0560     2.1770 ha         1 5K4       0.138500
     32 H11          5.6970    -3.1030    -0.4010 hc         1 5K4       0.058200
     33 H12          4.4870    -2.0220    -1.1190 hc         1 5K4       0.058200
     34 H13          5.6500    -3.4660    -2.8160 hc         1 5K4       0.042700
     35 H14          5.8680    -1.7320    -3.1100 hc         1 5K4       0.042700
     36 H15          7.8470    -3.5070    -1.6400 hc         1 5K4       0.043700
     37 H16          7.9990    -3.0080    -3.3330 hc         1 5K4       0.043700
     38 H17          7.9800    -0.6290    -2.5950 hc         1 5K4       0.055700
     39 H18         10.2460    -0.6800    -1.5210 hc         1 5K4       0.042200
     40 H19         10.0660    -2.4260    -1.3040 hc         1 5K4       0.042200
     41 H20          9.6580    -1.2330    -4.0350 hc         1 5K4       0.033033
     42 H21         10.2000    -2.8580    -3.5940 hc         1 5K4       0.033033
     43 H22         11.3040    -1.4850    -3.4390 hc         1 5K4       0.033033
     44 H23          8.1700    -0.0900    -0.2290 hc         1 5K4       0.057200
     45 H24          8.1540    -1.8130     0.1960 hc         1 5K4       0.057200
     46 H25          3.9700    -0.0020    -2.1450 ha         1 5K4       0.138500
     47 H26          1.5080    -0.0050    -2.1400 ha         1 5K4       0.140250
@<TRIPOS>BOND
     1     1     2 1
     2    23     2 ar
     3    23    22 ar
     4     2     3 ar
     5    22     5 ar
     6     3     4 ar
     7     5     4 ar
     8     5     6 1
     9     6     7 1
    10     6    14 2
    11    13     7 ar
    12    13    12 ar
    13     7     8 ar
    14    12    10 ar
    15     8     9 ar
    16    10     9 ar
    17    10    11 1
    18    21    14 1
    19    21    18 1
    20    14    15 1
    21    19    18 1
    22    19    20 1
    23    18    17 1
    24    15    16 1
    25    17    16 1
    26     1    24 1
    27     3    25 1
    28     4    26 1
    29     8    27 1
    30     9    28 1
    31    11    29 1
    32    12    30 1
    33    13    31 1
    34    15    32 1
    35    15    33 1
    36    16    34 1
    37    16    35 1
    38    17    36 1
    39    17    37 1
    40    18    38 1
    41    19    39 1
    42    19    40 1
    43    20    41 1
    44    20    42 1
    45    20    43 1
    46    21    44 1
    47    21    45 1
    48    22    46 1
    49    23    47 1
@<TRIPOS>SUBSTRUCTURE
     1 5K4         1 TEMP              0 ****  ****    0 ROOT
