@<TRIPOS>MOLECULE
molecule
   51    54     1     0     0
SMALL
bcc


@<TRIPOS>ATOM
      1 C01          0.0000     0.0000     0.0000 c3         1 5K5      -0.043200
      2 C02          1.5340     0.0000     0.0000 c3         1 5K5      -0.058700
      3 C03          2.0230     0.0000     1.4500 c3         1 5K5      -0.076400
      4 C04          3.5510    -0.0240     1.4810 c3         1 5K5      -0.079400
      5 C05          4.0490    -1.2910     0.7830 c3         1 5K5      -0.079400
      6 C06          3.5750    -1.2840    -0.6700 c3         1 5K5      -0.076400
      7 C07          2.0450    -1.2510    -0.7170 c3         1 5K5      -0.065700
      8 C08          1.5970    -1.2310    -2.1800 c3         1 5K5      -0.072400
      9 C09          0.0680    -1.2850    -2.2520 c3         1 5K5      -0.049200
     10 C10         -0.4870    -0.1480    -1.4230 c2         1 5K5      -0.084400
     11 C11         -1.3850     0.7030    -1.9350 ce         1 5K5      -0.046400
     12 C12         -1.8480     0.5380    -3.3340 ca         1 5K5      -0.048800
     13 C13         -0.9520     0.6950    -4.3900 ca         1 5K5      -0.105000
     14 C14         -1.3860     0.5410    -5.6910 ca         1 5K5      -0.154000
     15 C15         -2.7140     0.2290    -5.9470 ca         1 5K5       0.103100
     16 O01         -3.1390     0.0780    -7.2290 oh         1 5K5      -0.523600
     17 C16         -3.6100     0.0720    -4.8980 ca         1 5K5      -0.154000
     18 C17         -3.1810     0.2210    -3.5960 ca         1 5K5      -0.105000
     19 C18         -1.9150     1.8100    -1.1040 ca         1 5K5      -0.048800
     20 C19         -1.6440     3.1340    -1.4480 ca         1 5K5      -0.105000
     21 C20         -2.1380     4.1620    -0.6730 ca         1 5K5      -0.154000
     22 C21         -2.9070     3.8790     0.4480 ca         1 5K5       0.103100
     23 O02         -3.3930     4.8930     1.2100 oh         1 5K5      -0.523600
     24 C22         -3.1790     2.5620     0.7930 ca         1 5K5      -0.154000
     25 C23         -2.6910     1.5300     0.0200 ca         1 5K5      -0.105000
     26 H1          -0.3620    -0.8300     0.5950 hc         1 5K5       0.055700
     27 H2          -0.3620     0.9340     0.4110 hc         1 5K5       0.055700
     28 H3           1.8980     0.8850    -0.5070 hc         1 5K5       0.056700
     29 H4           1.6680     0.8940     1.9480 hc         1 5K5       0.041200
     30 H5           1.6400    -0.8770     1.9580 hc         1 5K5       0.041200
     31 H6           3.9360     0.8470     0.9660 hc         1 5K5       0.040700
     32 H7           3.8910    -0.0220     2.5100 hc         1 5K5       0.040700
     33 H8           3.6490    -2.1620     1.2880 hc         1 5K5       0.040700
     34 H9           5.1310    -1.3160     0.8090 hc         1 5K5       0.040700
     35 H10          3.9290    -2.1790    -1.1680 hc         1 5K5       0.041700
     36 H11          3.9680    -0.4070    -1.1710 hc         1 5K5       0.041700
     37 H12          1.6490    -2.1340    -0.2290 hc         1 5K5       0.052700
     38 H13          1.9470    -0.3200    -2.6510 hc         1 5K5       0.043700
     39 H14          2.0110    -2.0910    -2.6940 hc         1 5K5       0.043700
     40 H15         -0.2520    -1.1760    -3.2810 hc         1 5K5       0.058700
     41 H16         -0.2820    -2.2300    -1.8540 hc         1 5K5       0.058700
     42 H19          0.0840     0.9380    -4.1900 ha         1 5K5       0.138500
     43 H20         -0.6900     0.6630    -6.5120 ha         1 5K5       0.140500
     44 H21         -3.4340     0.9090    -7.5630 ho         1 5K5       0.418500
     45 H22         -4.6450    -0.1730    -5.1020 ha         1 5K5       0.140500
     46 H23         -3.8800     0.0980    -2.7770 ha         1 5K5       0.138500
     47 H24         -1.0450     3.3550    -2.3230 ha         1 5K5       0.138500
     48 H25         -1.9280     5.1900    -0.9400 ha         1 5K5       0.140500
     49 H26         -2.7700     5.1060     1.8850 ho         1 5K5       0.418500
     50 H27         -3.7800     2.3450     1.6680 ha         1 5K5       0.140500
     51 H28         -2.9040     0.5030     0.2890 ha         1 5K5       0.138500
@<TRIPOS>BOND
     1    23    22 1   
     2    24    22 ar  
     3    24    25 ar  
     4    22    21 ar  
     5    25    19 ar  
     6    21    20 ar  
     7    19    20 ar  
     8    19    11 1   
     9    13    14 ar  
    10    13    12 ar  
    11    14    15 ar  
    12    11    12 1   
    13    11    10 2   
    14    12    18 ar  
    15    15    16 1   
    16    15    17 ar  
    17    18    17 ar  
    18     1    10 1   
    19     1     2 1   
    20    10     9 1   
    21     3     2 1   
    22     3     4 1   
    23     2     7 1   
    24     4     5 1   
    25     9     8 1   
    26     7     8 1   
    27     7     6 1   
    28     5     6 1   
    29     1    26 1   
    30     1    27 1   
    31     2    28 1   
    32     3    29 1   
    33     3    30 1   
    34     4    31 1   
    35     4    32 1   
    36     5    33 1   
    37     5    34 1   
    38     6    35 1   
    39     6    36 1   
    40     7    37 1   
    41     8    38 1   
    42     8    39 1   
    43     9    40 1   
    44     9    41 1   
    45    13    42 1   
    46    14    43 1   
    47    16    44 1   
    48    17    45 1   
    49    18    46 1   
    50    20    47 1   
    51    21    48 1   
    52    23    49 1   
    53    24    50 1   
    54    25    51 1   
@<TRIPOS>SUBSTRUCTURE
     1 5K5         1 TEMP              0 ****  ****    0 ROOT
