@<TRIPOS>MOLECULE
molecule
   50    52     1     0     0
SMALL
bcc


@<TRIPOS>ATOM
      1 O01          0.0000     0.0000     0.0000 oh         1 5K7      -0.523100
      2 C02          1.3590     0.0000     0.0000 ca         1 5K7       0.103100
      3 C03          2.0510     0.0000     1.2040 ca         1 5K7      -0.154000
      4 C04          3.4300     0.0000     1.2080 ca         1 5K7      -0.104750
      5 C05          4.1290     0.0010     0.0010 ca         1 5K7      -0.049800
      6 C06          5.6120     0.0010     0.0010 ce         1 5K7      -0.045400
      7 C07          6.3520     1.1650     0.5440 ca         1 5K7      -0.049800
      8 C08          7.1480     1.0180     1.6800 ca         1 5K7      -0.104750
      9 C09          7.8400     2.1010     2.1800 ca         1 5K7      -0.154000
     10 C10          7.7460     3.3370     1.5530 ca         1 5K7       0.103100
     11 O11          8.4290     4.4010     2.0480 oh         1 5K7      -0.523100
     12 C12          6.9550     3.4860     0.4220 ca         1 5K7      -0.154000
     13 C13          6.2600     2.4070    -0.0830 ca         1 5K7      -0.104750
     14 C14          6.2810    -1.0490    -0.4890 c2         1 5K7      -0.088400
     15 C15          7.7930    -1.0690    -0.4980 c3         1 5K7      -0.044200
     16 C16          8.2670    -2.3780     0.1440 c3         1 5K7      -0.076400
     17 C17          7.6160    -3.5610    -0.5750 c3         1 5K7      -0.061700
     18 C18          8.1580    -4.8690     0.0060 c3         1 5K7      -0.123400
     19 C19          7.6120    -6.0320    -0.7820 c          1 5K7       0.630100
     20 O20          7.9550    -7.2870    -0.4500 os         1 5K7      -0.431900
     21 C21          7.3920    -8.3580    -1.2530 c3         1 5K7       0.138700
     22 O22          6.8670    -5.8350    -1.7130 o          1 5K7      -0.552000
     23 C23          6.0990    -3.5120    -0.3860 c3         1 5K7      -0.076400
     24 C24          5.5440    -2.2490    -1.0420 c3         1 5K7      -0.044200
     25 C25          3.4310     0.0010    -1.2060 ca         1 5K7      -0.104750
     26 C26          2.0510    -0.0040    -1.2040 ca         1 5K7      -0.154000
     27 H1          -0.3140    -0.8890     0.0000 ho         1 5K7       0.418500
     28 H2           1.5070    -0.0010     2.1410 ha         1 5K7       0.140500
     29 H3           3.9700     0.0000     2.1470 ha         1 5K7       0.138000
     30 H5           7.2220     0.0550     2.1700 ha         1 5K7       0.138000
     31 H6           8.4580     1.9880     3.0620 ha         1 5K7       0.140500
     32 H7           7.8920     4.8550     2.6760 ho         1 5K7       0.418500
     33 H8           6.8830     4.4510    -0.0640 ha         1 5K7       0.140500
     34 H9           5.6430     2.5240    -0.9650 ha         1 5K7       0.138000
     35 H11          8.1710    -0.2280     0.0700 hc         1 5K7       0.059200
     36 H12          8.1510    -1.0150    -1.5200 hc         1 5K7       0.059200
     37 H13          7.9810    -2.3900     1.1890 hc         1 5K7       0.049450
     38 H14          9.3440    -2.4520     0.0570 hc         1 5K7       0.049450
     39 H15          7.8470    -3.5080    -1.6320 hc         1 5K7       0.069700
     40 H16          7.8520    -4.9590     1.0410 hc         1 5K7       0.073200
     41 H17          9.2400    -4.8700    -0.0520 hc         1 5K7       0.073200
     42 H18          7.7560    -9.3110    -0.8890 h1         1 5K7       0.049367
     43 H19          6.3110    -8.3330    -1.1810 h1         1 5K7       0.049367
     44 H20          7.6890    -8.2280    -2.2860 h1         1 5K7       0.049367
     45 H21          5.6510    -4.3840    -0.8470 hc         1 5K7       0.049450
     46 H22          5.8690    -3.4990     0.6730 hc         1 5K7       0.049450
     47 H23          5.6930    -2.3020    -2.1140 hc         1 5K7       0.059200
     48 H24          4.4880    -2.1600    -0.8200 hc         1 5K7       0.059200
     49 H25          3.9710    -0.0000    -2.1450 ha         1 5K7       0.138000
     50 H26          1.5080    -0.0040    -2.1410 ha         1 5K7       0.140500
@<TRIPOS>BOND
     1    11    10 1
     2    26    25 ar
     3    26     2 ar
     4     9    10 ar
     5     9     8 ar
     6    10    12 ar
     7     1     2 1
     8    25     5 ar
     9     8     7 ar
    10     2     3 ar
    11    12    13 ar
    12     7    13 ar
    13     7     6 1
    14     5     6 1
    15     5     4 ar
    16     6    14 2
    17     3     4 ar
    18    14    15 1
    19    14    24 1
    20    16    15 1
    21    16    17 1
    22    23    24 1
    23    23    17 1
    24    18    17 1
    25    18    19 1
    26    20    21 1
    27    20    19 1
    28    19    22 2
    29     1    27 1
    30     3    28 1
    31     4    29 1
    32     8    30 1
    33     9    31 1
    34    11    32 1
    35    12    33 1
    36    13    34 1
    37    15    35 1
    38    15    36 1
    39    16    37 1
    40    16    38 1
    41    17    39 1
    42    18    40 1
    43    18    41 1
    44    21    42 1
    45    21    43 1
    46    21    44 1
    47    23    45 1
    48    23    46 1
    49    24    47 1
    50    24    48 1
    51    25    49 1
    52    26    50 1
@<TRIPOS>SUBSTRUCTURE
     1 5K7         1 TEMP              0 ****  ****    0 ROOT
