@<TRIPOS>MOLECULE
molecule
   56    58     1     0     0
SMALL
bcc


@<TRIPOS>ATOM
      1 O01          0.0000     0.0000     0.0000 oh         1 5K8      -0.523600
      2 C02          1.3580     0.0000     0.0000 ca         1 5K8       0.103100
      3 C03          2.0500     0.0000     1.2040 ca         1 5K8      -0.152750
      4 C04          3.4290     0.0000     1.2080 ca         1 5K8      -0.103250
      5 C05          4.1280    -0.0010     0.0020 ca         1 5K8      -0.047800
      6 C06          5.6110    -0.0010     0.0020 ce         1 5K8      -0.039400
      7 C07          6.3520     1.1630     0.5440 ca         1 5K8      -0.047800
      8 C08          6.2600     2.4040    -0.0840 ca         1 5K8      -0.103250
      9 C09          6.9520     3.4840     0.4240 ca         1 5K8      -0.152750
     10 C10          7.7390     3.3360     1.5580 ca         1 5K8       0.103100
     11 O11          8.4180     4.4030     2.0550 oh         1 5K8      -0.523600
     12 C12          7.8320     2.1020     2.1850 ca         1 5K8      -0.152750
     13 C13          7.1390     1.0190     1.6880 ca         1 5K8      -0.103250
     14 C14          6.2800    -1.0520    -0.4870 c2         1 5K8      -0.082400
     15 C15          5.5440    -2.2470    -1.0500 c3         1 5K8      -0.053200
     16 C16          6.1040    -2.5520    -2.4440 c3         1 5K8      -0.069400
     17 C17          7.6190    -2.7320    -2.3540 c3         1 5K8      -0.092400
     18 C18          8.2710    -1.4230    -1.9050 c3         1 5K8      -0.039700
     19 C19          9.7930    -1.5850    -1.9030 c3         1 5K8      -0.154700
     20 C20         10.2630    -1.9270    -3.2920 c          1 5K8       0.634600
     21 O21         11.5700    -2.1180    -3.5310 os         1 5K8      -0.414900
     22 C22         11.9510    -2.4440    -4.8930 c3         1 5K8       0.137700
     23 O23          9.4640    -2.0320    -4.1930 o          1 5K8      -0.532500
     24 C24         10.4350    -0.2950    -1.4590 c          1 5K8       0.634600
     25 O25         11.7720    -0.2030    -1.3810 os         1 5K8      -0.414900
     26 C26         12.3210     1.0690    -0.9470 c3         1 5K8       0.137700
     27 O27          9.7460     0.6560    -1.1740 o          1 5K8      -0.532500
     28 C28          7.7920    -1.0730    -0.4960 c3         1 5K8      -0.055200
     29 C29          3.4300    -0.0010    -1.2050 ca         1 5K8      -0.103250
     30 C30          2.0520    -0.0060    -1.2030 ca         1 5K8      -0.152750
     31 H1          -0.3140     0.8890    -0.0030 ho         1 5K8       0.417000
     32 H2           1.5070     0.0010     2.1410 ha         1 5K8       0.139000
     33 H3           3.9690     0.0000     2.1470 ha         1 5K8       0.137500
     34 H4           5.6470     2.5200    -0.9690 ha         1 5K8       0.137500
     35 H5           6.8820     4.4490    -0.0640 ha         1 5K8       0.139000
     36 H6           7.8770     4.8550     2.6810 ho         1 5K8       0.417000
     37 H7           8.4450     1.9900     3.0720 ha         1 5K8       0.139000
     38 H8           7.2120     0.0560     2.1780 ha         1 5K8       0.137500
     39 H9           5.6920    -3.1030    -0.4040 hc         1 5K8       0.057200
     40 H10          4.4870    -2.0190    -1.1260 hc         1 5K8       0.057200
     41 H11          5.6550    -3.4630    -2.8200 hc         1 5K8       0.046700
     42 H12          5.8780    -1.7290    -3.1110 hc         1 5K8       0.046700
     43 H13          8.0050    -3.0090    -3.3280 hc         1 5K8       0.055700
     44 H14          7.8460    -3.5110    -1.6370 hc         1 5K8       0.055700
     45 H15          7.9890    -0.6290    -2.5860 hc         1 5K8       0.084700
     46 H16         10.0710    -2.3800    -1.2220 hc         1 5K8       0.103700
     47 H17         11.6240    -1.6550    -5.5590 h1         1 5K8       0.051533
     48 H18         11.4840    -3.3780    -5.1840 h1         1 5K8       0.051533
     49 H19         13.0280    -2.5450    -4.9530 h1         1 5K8       0.051533
     50 H20         13.3950     1.0650    -1.0870 h1         1 5K8       0.051533
     51 H21         11.8830     1.8700    -1.5300 h1         1 5K8       0.051533
     52 H22         12.0940     1.2210     0.1020 h1         1 5K8       0.051533
     53 H23          8.1480    -1.8200     0.2030 hc         1 5K8       0.069700
     54 H24          8.1700    -0.0970    -0.2170 hc         1 5K8       0.069700
     55 H25          3.9710    -0.0040    -2.1440 ha         1 5K8       0.137500
     56 H26          1.5090    -0.0060    -2.1400 ha         1 5K8       0.139000
@<TRIPOS>BOND
     1    11    10 1   
     2    10     9 ar  
     3    10    12 ar  
     4     9     8 ar  
     5    12    13 ar  
     6     8     7 ar  
     7    13     7 ar  
     8     7     6 1   
     9     6     5 1   
    10     6    14 2   
    11     5     4 ar  
    12     5    29 ar  
    13     4     3 ar  
    14    29    30 ar  
    15    30     2 ar  
    16     3     2 ar  
    17     2     1 1   
    18    15    14 1   
    19    15    16 1   
    20    14    28 1   
    21    16    17 1   
    22    28    18 1   
    23    17    18 1   
    24    18    19 1   
    25    27    24 2   
    26    21    20 1   
    27    21    22 1   
    28    19    20 1   
    29    19    24 1   
    30    20    23 2   
    31    24    25 1   
    32    25    26 1   
    33     1    31 1   
    34     3    32 1   
    35     4    33 1   
    36     8    34 1   
    37     9    35 1   
    38    11    36 1   
    39    12    37 1   
    40    13    38 1   
    41    15    39 1   
    42    15    40 1   
    43    16    41 1   
    44    16    42 1   
    45    17    43 1   
    46    17    44 1   
    47    18    45 1   
    48    19    46 1   
    49    22    47 1   
    50    22    48 1   
    51    22    49 1   
    52    26    50 1   
    53    26    51 1   
    54    26    52 1   
    55    28    53 1   
    56    28    54 1   
    57    29    55 1   
    58    30    56 1   
@<TRIPOS>SUBSTRUCTURE
     1 5K8         1 TEMP              0 ****  ****    0 ROOT
