@<TRIPOS>MOLECULE
molecule
   60    62     1     0     0
SMALL
bcc


@<TRIPOS>ATOM
      1 O01          0.0000     0.0000     0.0000 oh         1 5KA      -0.522600
      2 C02          1.3580     0.0000     0.0000 ca         1 5KA       0.103100
      3 C03          2.0510     0.0000     1.2030 ca         1 5KA      -0.154250
      4 C04          3.4310    -0.0050     1.2050 ca         1 5KA      -0.105000
      5 C05          4.1280    -0.0110    -0.0020 ca         1 5KA      -0.050300
      6 C06          5.6110    -0.0170    -0.0020 ce         1 5KA      -0.042400
      7 C07          6.3580     1.1450     0.5370 ca         1 5KA      -0.050300
      8 C08          7.1530     0.9980     1.6730 ca         1 5KA      -0.105000
      9 C09          7.8510     2.0790     2.1680 ca         1 5KA      -0.154250
     10 C10          7.7610     3.3130     1.5390 ca         1 5KA       0.103100
     11 O11          8.4490     4.3770     2.0290 oh         1 5KA      -0.522600
     12 C12          6.9700     3.4630     0.4070 ca         1 5KA      -0.154250
     13 C13          6.2710     2.3850    -0.0940 ca         1 5KA      -0.105000
     14 C14          6.2770    -1.0720    -0.4900 c2         1 5KA      -0.088400
     15 C15          7.7890    -1.0990    -0.4990 c3         1 5KA      -0.047200
     16 C16          8.2570    -2.4070     0.1470 c3         1 5KA      -0.072400
     17 C17          7.6010    -3.5890    -0.5680 c3         1 5KA      -0.071700
     18 C18          8.1390    -4.8980     0.0150 c3         1 5KA      -0.077400
     19 C19          7.5790    -6.0790    -0.7800 c3         1 5KA       0.137400
     20 O20          8.0810    -7.3010    -0.2360 os         1 5KA      -0.433600
     21 C26          6.0850    -3.5340    -0.3780 c3         1 5KA      -0.072400
     22 C27          5.5340    -2.2710    -1.0380 c3         1 5KA      -0.047200
     23 C28          3.4300    -0.0120    -1.2070 ca         1 5KA      -0.105000
     24 C29          2.0510    -0.0060    -1.2040 ca         1 5KA      -0.154250
     25 H1          -0.3140     0.8890    -0.0020 ho         1 5KA       0.418500
     26 H2           1.5080     0.0050     2.1400 ha         1 5KA       0.141000
     27 H3           3.9720    -0.0050     2.1440 ha         1 5KA       0.138500
     28 H5           7.2230     0.0350     2.1650 ha         1 5KA       0.138500
     29 H6           8.4690     1.9660     3.0510 ha         1 5KA       0.141000
     30 H7           9.3030     4.4100     1.6300 ho         1 5KA       0.418500
     31 H8           6.9030     4.4270    -0.0830 ha         1 5KA       0.141000
     32 H9           5.6530     2.5010    -0.9770 ha         1 5KA       0.138500
     33 H11          8.1710    -0.2580     0.0670 hc         1 5KA       0.056950
     34 H12          8.1470    -1.0500    -1.5200 hc         1 5KA       0.056950
     35 H13          7.9720    -2.4150     1.1920 hc         1 5KA       0.046450
     36 H14          9.3340    -2.4860     0.0600 hc         1 5KA       0.046450
     37 H15          7.8310    -3.5400    -1.6250 hc         1 5KA       0.051700
     38 H16          9.2210    -4.9020    -0.0460 hc         1 5KA       0.054700
     39 H17          7.8350    -4.9840     1.0510 hc         1 5KA       0.054700
     40 H18          7.8840    -5.9930    -1.8160 h1         1 5KA       0.024200
     41 H19          6.4980    -6.0740    -0.7200 h1         1 5KA       0.024200
     42 H21          5.8550    -3.5160     0.6800 hc         1 5KA       0.046450
     43 H22          5.6330    -4.4050    -0.8370 hc         1 5KA       0.046450
     44 H23          5.6810    -2.3290    -2.1100 hc         1 5KA       0.056950
     45 H24          4.4780    -2.1770    -0.8150 hc         1 5KA       0.056950
     46 H25          3.9700    -0.0160    -2.1470 ha         1 5KA       0.138500
     47 H26          1.5080    -0.0070    -2.1410 ha         1 5KA       0.141000
     48 C1           7.6170    -8.4730    -0.9110 c3         1 5KA       0.141400
     49 C2           8.2150    -9.7140    -0.2460 c3         1 5KA      -0.081400
     50 C3           7.7180   -10.9680    -0.9670 c3         1 5KA      -0.116400
     51 C4           8.3160   -12.2090    -0.3040 c3         1 5KA       0.163900
     52 F1           7.8610   -13.3570    -0.9640 f          1 5KA      -0.252300
     53 H4           6.5360    -8.5180    -0.8540 h1         1 5KA       0.024200
     54 H10          7.9230    -8.4360    -1.9490 h1         1 5KA       0.024200
     55 H20          7.9100    -9.7500     0.7930 hc         1 5KA       0.054700
     56 H27          9.2960    -9.6690    -0.3040 hc         1 5KA       0.054700
     57 H28          8.0220   -10.9320    -2.0060 hc         1 5KA       0.055700
     58 H29          6.6370   -11.0130    -0.9090 hc         1 5KA       0.055700
     59 H30          8.0110   -12.2460     0.7350 h1         1 5KA       0.044200
     60 H31          9.3970   -12.1640    -0.3620 h1         1 5KA       0.044200
@<TRIPOS>BOND
     1    21    22 1
     2    21    17 1
     3    22    14 1
     4    19    18 1
     5    19    20 1
     6    17    18 1
     7    17    16 1
     8    14    15 1
     9    14     6 2
    10    15    16 1
    11    11    10 1
    12     9    10 ar
    13     9     8 ar
    14    10    12 ar
    15     8     7 ar
    16    12    13 ar
    17     7    13 ar
    18     7     6 1
    19     6     5 1
    20     4     5 ar
    21     4     3 ar
    22     5    23 ar
    23     3     2 ar
    24    23    24 ar
    25     2    24 ar
    26     2     1 1
    27     1    25 1
    28     3    26 1
    29     4    27 1
    30     8    28 1
    31     9    29 1
    32    11    30 1
    33    12    31 1
    34    13    32 1
    35    15    33 1
    36    15    34 1
    37    16    35 1
    38    16    36 1
    39    17    37 1
    40    18    38 1
    41    18    39 1
    42    19    40 1
    43    19    41 1
    44    21    42 1
    45    21    43 1
    46    22    44 1
    47    22    45 1
    48    23    46 1
    49    24    47 1
    50    20    48 1
    51    48    49 1
    52    49    50 1
    53    50    51 1
    54    51    52 1
    55    48    53 1
    56    48    54 1
    57    49    55 1
    58    49    56 1
    59    50    57 1
    60    50    58 1
    61    51    59 1
    62    51    60 1
@<TRIPOS>SUBSTRUCTURE
     1 5KA         1 TEMP              0 ****  ****    0 ROOT
