@<TRIPOS>MOLECULE
molecule
   51    54     1     0     0
SMALL
bcc


@<TRIPOS>ATOM
      1 O01          0.0000     0.0000     0.0000 oh         1 5KB      -0.523100
      2 C02          1.3590     0.0000     0.0000 ca         1 5KB       0.103100
      3 C03          2.0520     0.0000     1.2030 ca         1 5KB      -0.153750
      4 C04          3.4310     0.0000     1.2060 ca         1 5KB      -0.104500
      5 C05          4.1290     0.0010    -0.0010 ca         1 5KB      -0.050800
      6 C06          5.6120     0.0010    -0.0020 ce         1 5KB      -0.041400
      7 C07          6.3530     1.1640     0.5410 ca         1 5KB      -0.050800
      8 C08          6.2610     2.4060    -0.0870 ca         1 5KB      -0.104500
      9 C09          6.9520     3.4860     0.4200 ca         1 5KB      -0.153750
     10 C10          7.7390     3.3380     1.5540 ca         1 5KB       0.103100
     11 O11          8.4190     4.4040     2.0510 oh         1 5KB      -0.523100
     12 C12          7.8340     2.1020     2.1810 ca         1 5KB      -0.153750
     13 C13          7.1410     1.0200     1.6820 ca         1 5KB      -0.104500
     14 C14          6.2810    -1.0500    -0.4930 c2         1 5KB      -0.089400
     15 C15          5.5440    -2.2450    -1.0570 c3         1 5KB      -0.047200
     16 C16          6.0950    -3.5130    -0.3980 c3         1 5KB      -0.076400
     17 C17          7.6130    -3.5640    -0.5830 c3         1 5KB      -0.074400
     18 C18          8.2630    -2.3840     0.1410 c3         1 5KB      -0.020400
     19 C19          9.7620    -2.4890     0.0290 ca         1 5KB      -0.079300
     20 C20         10.3640    -2.4850    -1.2160 ca         1 5KB      -0.124500
     21 C21         11.7380    -2.5810    -1.3200 ca         1 5KB      -0.126000
     22 C22         12.5130    -2.6830    -0.1790 ca         1 5KB      -0.131000
     23 C23         11.9100    -2.6870     1.0660 ca         1 5KB      -0.126000
     24 C24         10.5360    -2.5860     1.1690 ca         1 5KB      -0.124500
     25 C25          7.7940    -1.0700    -0.5040 c3         1 5KB      -0.040200
     26 C26          3.4300     0.0000    -1.2080 ca         1 5KB      -0.104500
     27 C27          2.0510    -0.0050    -1.2040 ca         1 5KB      -0.153750
     28 H1          -0.3140     0.8890    -0.0000 ho         1 5KB       0.419000
     29 H2           1.5090    -0.0000     2.1400 ha         1 5KB       0.140750
     30 H3           3.9710     0.0000     2.1450 ha         1 5KB       0.138000
     31 H5           5.6470     2.5230    -0.9720 ha         1 5KB       0.138000
     32 H6           6.8810     4.4510    -0.0670 ha         1 5KB       0.140750
     33 H7           9.2740     4.4440     1.6550 ho         1 5KB       0.419000
     34 H8           8.4480     1.9900     3.0670 ha         1 5KB       0.140750
     35 H9           7.2150     0.0560     2.1720 ha         1 5KB       0.138000
     36 H11          5.7000    -2.2950    -2.1280 hc         1 5KB       0.056700
     37 H12          4.4860    -2.1540    -0.8420 hc         1 5KB       0.056700
     38 H13          5.6460    -4.3840    -0.8610 hc         1 5KB       0.045700
     39 H14          5.8610    -3.5000     0.6600 hc         1 5KB       0.045700
     40 H15          7.8470    -3.5100    -1.6390 hc         1 5KB       0.046200
     41 H16          7.9930    -4.4900    -0.1710 hc         1 5KB       0.046200
     42 H17          7.9710    -2.3970     1.1840 hc         1 5KB       0.057700
     43 H18          9.7570    -2.4050    -2.1110 ha         1 5KB       0.129500
     44 H19         12.2090    -2.5780    -2.2960 ha         1 5KB       0.129000
     45 H20         13.5900    -2.7600    -0.2600 ha         1 5KB       0.129000
     46 H21         12.5160    -2.7650     1.9600 ha         1 5KB       0.129000
     47 H22         10.0650    -2.5890     2.1440 ha         1 5KB       0.129500
     48 H23          8.1730    -0.2300     0.0660 hc         1 5KB       0.060700
     49 H24          8.1510    -1.0170    -1.5250 hc         1 5KB       0.060700
     50 H25          3.9700    -0.0010    -2.1470 ha         1 5KB       0.138000
     51 H26          1.5080    -0.0050    -2.1410 ha         1 5KB       0.140750
@<TRIPOS>BOND
     1     1     2 1
     2     3     2 ar
     3     3     4 ar
     4     2    27 ar
     5     4     5 ar
     6    27    26 ar
     7     5    26 ar
     8     5     6 1
     9     6     7 1
    10     6    14 2
    11    15    14 1
    12    15    16 1
    13     7     8 ar
    14     7    13 ar
    15     8     9 ar
    16    13    12 ar
    17    14    25 1
    18     9    10 ar
    19    12    10 ar
    20    10    11 1
    21    16    17 1
    22    25    18 1
    23    17    18 1
    24    18    19 1
    25    20    19 ar
    26    20    21 ar
    27    19    24 ar
    28    21    22 ar
    29    24    23 ar
    30    22    23 ar
    31     1    28 1
    32     3    29 1
    33     4    30 1
    34     8    31 1
    35     9    32 1
    36    11    33 1
    37    12    34 1
    38    13    35 1
    39    15    36 1
    40    15    37 1
    41    16    38 1
    42    16    39 1
    43    17    40 1
    44    17    41 1
    45    18    42 1
    46    20    43 1
    47    21    44 1
    48    22    45 1
    49    23    46 1
    50    24    47 1
    51    25    48 1
    52    25    49 1
    53    26    50 1
    54    27    51 1
@<TRIPOS>SUBSTRUCTURE
     1 5KB         1 TEMP              0 ****  ****    0 ROOT
