@<TRIPOS>MOLECULE
molecule
   55    58     1     0     0
SMALL
bcc


@<TRIPOS>ATOM
      1 O01          0.0000     0.0000     0.0000 oh         1 5KD      -0.522100
      2 C02          1.3580     0.0000     0.0000 ca         1 5KD       0.103100
      3 C03          2.0520     0.0000     1.2030 ca         1 5KD      -0.153750
      4 C04          3.4300     0.0010     1.2080 ca         1 5KD      -0.105250
      5 C05          4.1290     0.0010     0.0010 ca         1 5KD      -0.049300
      6 C06          5.6110     0.0020     0.0010 ce         1 5KD      -0.045400
      7 C07          6.3520     1.1660     0.5440 ca         1 5KD      -0.049300
      8 C08          7.1480     1.0190     1.6800 ca         1 5KD      -0.105250
      9 C09          7.8360     2.1030     2.1830 ca         1 5KD      -0.153750
     10 C10          7.7370     3.3390     1.5590 ca         1 5KD       0.103100
     11 O11          8.4160     4.4060     2.0570 oh         1 5KD      -0.522100
     12 C12          6.9460     3.4880     0.4280 ca         1 5KD      -0.153750
     13 C13          6.2590     2.4070    -0.0830 ca         1 5KD      -0.105250
     14 C14          6.2810    -1.0490    -0.4890 c2         1 5KD      -0.086400
     15 C15          5.5450    -2.2430    -1.0540 c3         1 5KD      -0.050200
     16 C16          6.1040    -2.5460    -2.4480 c3         1 5KD      -0.077400
     17 C17          7.6210    -2.7250    -2.3600 c3         1 5KD      -0.075400
     18 C18          8.2720    -1.4160    -1.9070 c3         1 5KD      -0.014400
     19 C19          9.7710    -1.5750    -1.9070 ca         1 5KD      -0.118300
     20 C20         10.5510    -0.7590    -2.7040 ca         1 5KD      -0.087000
     21 C21         11.9250    -0.9020    -2.7060 ca         1 5KD      -0.187500
     22 C22         12.5220    -1.8660    -1.9050 ca         1 5KD       0.138100
     23 O23         13.8730    -2.0080    -1.9050 os         1 5KD      -0.329900
     24 C24         14.4190    -3.0200    -1.0560 c3         1 5KD       0.129700
     25 C25         11.7360    -2.6820    -1.1050 ca         1 5KD      -0.187500
     26 C26         10.3630    -2.5320    -1.1030 ca         1 5KD      -0.087000
     27 C27          7.7940    -1.0680    -0.4990 c3         1 5KD      -0.039200
     28 C28          3.4310     0.0010    -1.2060 ca         1 5KD      -0.105250
     29 C29          2.0520    -0.0050    -1.2030 ca         1 5KD      -0.153750
     30 H1          -0.3140     0.8890    -0.0020 ho         1 5KD       0.418500
     31 H2           1.5080    -0.0000     2.1400 ha         1 5KD       0.140250
     32 H3           3.9690     0.0010     2.1470 ha         1 5KD       0.138000
     33 H5           7.2250     0.0540     2.1670 ha         1 5KD       0.138000
     34 H6           8.4550     1.9900     3.0650 ha         1 5KD       0.140250
     35 H7           7.8770     4.8560     2.6850 ho         1 5KD       0.418500
     36 H8           6.8730     4.4540    -0.0570 ha         1 5KD       0.140250
     37 H9           5.6420     2.5250    -0.9660 ha         1 5KD       0.138000
     38 H11          4.4880    -2.0160    -1.1290 hc         1 5KD       0.058200
     39 H12          5.6940    -3.1000    -0.4090 hc         1 5KD       0.058200
     40 H13          5.6560    -3.4570    -2.8260 hc         1 5KD       0.043200
     41 H14          5.8770    -1.7230    -3.1140 hc         1 5KD       0.043200
     42 H15          8.0070    -3.0000    -3.3340 hc         1 5KD       0.045700
     43 H16          7.8490    -3.5050    -1.6430 hc         1 5KD       0.045700
     44 H17          7.9900    -0.6220    -2.5880 hc         1 5KD       0.058700
     45 H18         10.0840    -0.0070    -3.3290 ha         1 5KD       0.133000
     46 H19         12.5360    -0.2620    -3.3320 ha         1 5KD       0.139000
     47 H20         14.1480    -2.8130    -0.0270 h1         1 5KD       0.040700
     48 H21         14.0240    -3.9860    -1.3460 h1         1 5KD       0.040700
     49 H22         15.4980    -3.0280    -1.1500 h1         1 5KD       0.040700
     50 H23         12.2000    -3.4340    -0.4770 ha         1 5KD       0.139000
     51 H24          9.7490    -3.1690    -0.4790 ha         1 5KD       0.133000
     52 H25          8.1710    -0.0920    -0.2190 hc         1 5KD       0.060200
     53 H26          8.1510    -1.8150     0.2000 hc         1 5KD       0.060200
     54 H27          3.9710    -0.0000    -2.1450 ha         1 5KD       0.138000
     55 H28          1.5090    -0.0050    -2.1400 ha         1 5KD       0.140250
@<TRIPOS>BOND
     1     9     8 ar
     2     9    10 ar
     3     3     4 ar
     4     3     2 ar
     5    11    10 1
     6     8     7 ar
     7     1     2 1
     8     4     5 ar
     9    10    12 ar
    10     2    29 ar
    11     7     6 1
    12     7    13 ar
    13     5    28 ar
    14     5     6 1
    15    29    28 ar
    16    12    13 ar
    17     6    14 2
    18    26    25 ar
    19    26    19 ar
    20    15    14 1
    21    15    16 1
    22    14    27 1
    23    17    18 1
    24    17    16 1
    25    25    22 ar
    26    18    27 1
    27    18    19 1
    28    19    20 ar
    29    24    23 1
    30    22    23 1
    31    22    21 ar
    32    20    21 ar
    33     1    30 1
    34     3    31 1
    35     4    32 1
    36     8    33 1
    37     9    34 1
    38    11    35 1
    39    12    36 1
    40    13    37 1
    41    15    38 1
    42    15    39 1
    43    16    40 1
    44    16    41 1
    45    17    42 1
    46    17    43 1
    47    18    44 1
    48    20    45 1
    49    21    46 1
    50    24    47 1
    51    24    48 1
    52    24    49 1
    53    25    50 1
    54    26    51 1
    55    27    52 1
    56    27    53 1
    57    28    54 1
    58    29    55 1
@<TRIPOS>SUBSTRUCTURE
     1 5KD         1 TEMP              0 ****  ****    0 ROOT
