@<TRIPOS>MOLECULE
molecule
   52    55     1     0     0
SMALL
bcc


@<TRIPOS>ATOM
      1 O01          0.0000     0.0000     0.0000 oh         1 5KE      -0.523100
      2 C02          1.3590     0.0000     0.0000 ca         1 5KE       0.103100
      3 C03          2.0520     0.0000     1.2040 ca         1 5KE      -0.153750
      4 C04          3.4310    -0.0060     1.2070 ca         1 5KE      -0.105250
      5 C05          4.1290    -0.0110     0.0000 ca         1 5KE      -0.050300
      6 C06          5.6120    -0.0160     0.0000 ce         1 5KE      -0.044400
      7 C07          6.3580     1.1460     0.5400 ca         1 5KE      -0.050300
      8 C08          6.2710     2.3860    -0.0900 ca         1 5KE      -0.105250
      9 C09          6.9660     3.4650     0.4160 ca         1 5KE      -0.153750
     10 C10          7.7520     3.3160     1.5500 ca         1 5KE       0.103100
     11 O11          8.4360     4.3800     2.0450 oh         1 5KE      -0.523100
     12 C12          7.8410     2.0820     2.1790 ca         1 5KE      -0.153750
     13 C13          7.1440     1.0000     1.6830 ca         1 5KE      -0.105250
     14 C14          6.2770    -1.0710    -0.4880 c2         1 5KE      -0.087400
     15 C15          7.7890    -1.0970    -0.4980 c3         1 5KE      -0.050200
     16 C16          8.2580    -2.4060     0.1470 c3         1 5KE      -0.077400
     17 C17          7.6030    -3.5880    -0.5690 c3         1 5KE      -0.074400
     18 C18          6.0860    -3.5320    -0.3800 c3         1 5KE      -0.019400
     19 C19          5.4550    -4.7470    -1.0110 ca         1 5KE      -0.087300
     20 C20          5.6200    -4.9850    -2.3640 ca         1 5KE      -0.111500
     21 C21          5.0430    -6.0970    -2.9460 ca         1 5KE      -0.149500
     22 C22          4.2990    -6.9750    -2.1730 ca         1 5KE       0.101100
     23 O23          3.7310    -8.0710    -2.7430 oh         1 5KE      -0.523100
     24 C24          4.1350    -6.7350    -0.8160 ca         1 5KE      -0.149500
     25 C25          4.7180    -5.6240    -0.2380 ca         1 5KE      -0.111500
     26 C26          5.5350    -2.2680    -1.0390 c3         1 5KE      -0.039200
     27 C27          3.4300    -0.0100    -1.2060 ca         1 5KE      -0.105250
     28 C28          2.0520    -0.0050    -1.2030 ca         1 5KE      -0.153750
     29 H1          -0.3140     0.8890    -0.0020 ho         1 5KE       0.419000
     30 H2           1.5080     0.0040     2.1410 ha         1 5KE       0.141000
     31 H3           3.9710    -0.0060     2.1460 ha         1 5KE       0.138500
     32 H5           5.6580     2.5030    -0.9750 ha         1 5KE       0.138500
     33 H6           6.8990     4.4290    -0.0730 ha         1 5KE       0.141000
     34 H7           7.8980     4.8370     2.6700 ho         1 5KE       0.419000
     35 H8           8.4540     1.9700     3.0660 ha         1 5KE       0.141000
     36 H9           7.2140     0.0380     2.1750 ha         1 5KE       0.138500
     37 H11          8.1710    -0.2560     0.0690 hc         1 5KE       0.058700
     38 H12          8.1470    -1.0460    -1.5190 hc         1 5KE       0.058700
     39 H13          7.9720    -2.4150     1.1920 hc         1 5KE       0.044200
     40 H14          9.3350    -2.4850     0.0610 hc         1 5KE       0.044200
     41 H15          7.9820    -4.5140    -0.1540 hc         1 5KE       0.046700
     42 H16          7.8340    -3.5390    -1.6260 hc         1 5KE       0.046700
     43 H17          5.8580    -3.5130     0.6790 hc         1 5KE       0.059700
     44 H18          6.2020    -4.2980    -2.9680 ha         1 5KE       0.134000
     45 H19          5.1720    -6.2830    -4.0050 ha         1 5KE       0.139500
     46 H20          2.8650    -7.8540    -3.0460 ho         1 5KE       0.418000
     47 H21          3.5560    -7.4200    -0.2090 ha         1 5KE       0.139500
     48 H22          4.5910    -5.4350     0.8210 ha         1 5KE       0.134000
     49 H23          4.4790    -2.1740    -0.8160 hc         1 5KE       0.060200
     50 H24          5.6830    -2.3240    -2.1100 hc         1 5KE       0.060200
     51 H25          3.9700    -0.0140    -2.1460 ha         1 5KE       0.138500
     52 H26          1.5090    -0.0040    -2.1400 ha         1 5KE       0.141000
@<TRIPOS>BOND
     1    21    20 ar
     2    21    22 ar
     3    20    19 ar
     4    23    22 1
     5    22    24 ar
     6    17    18 1
     7    17    16 1
     8    19    18 1
     9    19    25 ar
    10    26    18 1
    11    26    14 1
    12    15    16 1
    13    15    14 1
    14    24    25 ar
    15    14     6 2
    16    13    12 ar
    17    13     7 ar
    18    12    10 ar
    19     6     7 1
    20     6     5 1
    21     4     5 ar
    22     4     3 ar
    23     7     8 ar
    24     5    27 ar
    25     3     2 ar
    26    10    11 1
    27    10     9 ar
    28    27    28 ar
    29     2    28 ar
    30     2     1 1
    31     8     9 ar
    32     1    29 1
    33     3    30 1
    34     4    31 1
    35     8    32 1
    36     9    33 1
    37    11    34 1
    38    12    35 1
    39    13    36 1
    40    15    37 1
    41    15    38 1
    42    16    39 1
    43    16    40 1
    44    17    41 1
    45    17    42 1
    46    18    43 1
    47    20    44 1
    48    21    45 1
    49    23    46 1
    50    24    47 1
    51    25    48 1
    52    26    49 1
    53    26    50 1
    54    27    51 1
    55    28    52 1
@<TRIPOS>SUBSTRUCTURE
     1 5KE         1 TEMP              0 ****  ****    0 ROOT
