@<TRIPOS>MOLECULE
molecule
   48    50     1     0     0
SMALL
bcc


@<TRIPOS>ATOM
      1 O01          0.0000     0.0000     0.0000 oh         1 5KF      -0.522100
      2 C02          1.3580     0.0000     0.0000 ca         1 5KF       0.103600
      3 C03          2.0510     0.0000     1.2040 ca         1 5KF      -0.154000
      4 C04          3.4300    -0.0000     1.2080 ca         1 5KF      -0.105250
      5 C05          4.1290    -0.0010     0.0010 ca         1 5KF      -0.049800
      6 C06          5.6110    -0.0010     0.0020 ce         1 5KF      -0.045400
      7 C07          6.3530     1.1620     0.5450 ca         1 5KF      -0.049800
      8 C08          7.1480     1.0170     1.6810 ca         1 5KF      -0.105250
      9 C09          7.8360     2.1000     2.1830 ca         1 5KF      -0.154000
     10 C10          7.7390     3.3370     1.5590 ca         1 5KF       0.103600
     11 O11          8.4180     4.4030     2.0560 oh         1 5KF      -0.522100
     12 C12          6.9480     3.4850     0.4270 ca         1 5KF      -0.154000
     13 C13          6.2610     2.4040    -0.0830 ca         1 5KF      -0.105250
     14 C14          6.2810    -1.0530    -0.4870 c2         1 5KF      -0.084400
     15 C15          5.5430    -2.2500    -1.0460 c3         1 5KF      -0.049200
     16 C16          6.0990    -2.5570    -2.4400 c3         1 5KF      -0.076400
     17 C17          7.6150    -2.7330    -2.3560 c3         1 5KF      -0.081400
     18 C18          8.2670    -1.4230    -1.9120 c3         1 5KF      -0.066700
     19 C19          9.7890    -1.5770    -1.9150 c3         1 5KF      -0.077400
     20 C20         10.2750    -1.8070    -3.3470 c3         1 5KF       0.138400
     21 O21         11.6970    -1.9520    -3.3500 oh         1 5KF      -0.611800
     22 C22          7.7930    -1.0700    -0.5020 c3         1 5KF      -0.040200
     23 C23          3.4310    -0.0010    -1.2050 ca         1 5KF      -0.105250
     24 C24          2.0520    -0.0050    -1.2030 ca         1 5KF      -0.154000
     25 H1          -0.3140     0.8890    -0.0030 ho         1 5KF       0.419000
     26 H2           1.5070     0.0000     2.1410 ha         1 5KF       0.140750
     27 H3           3.9700    -0.0000     2.1470 ha         1 5KF       0.138250
     28 H5           7.2250     0.0530     2.1680 ha         1 5KF       0.138250
     29 H6           8.4540     1.9870     3.0650 ha         1 5KF       0.140750
     30 H7           7.8800     4.8540     2.6850 ho         1 5KF       0.419000
     31 H8           6.8750     4.4510    -0.0590 ha         1 5KF       0.140750
     32 H9           5.6450     2.5210    -0.9660 ha         1 5KF       0.138250
     33 H11          4.4860    -2.0240    -1.1170 hc         1 5KF       0.059200
     34 H12          5.6960    -3.1050    -0.3980 hc         1 5KF       0.059200
     35 H13          5.8690    -1.7350    -3.1080 hc         1 5KF       0.042700
     36 H14          5.6500    -3.4690    -2.8140 hc         1 5KF       0.042700
     37 H15          7.8460    -3.5100    -1.6370 hc         1 5KF       0.044200
     38 H16          7.9990    -3.0120    -3.3300 hc         1 5KF       0.044200
     39 H17          7.9800    -0.6320    -2.5940 hc         1 5KF       0.054700
     40 H18         10.0670    -2.4240    -1.2990 hc         1 5KF       0.056200
     41 H19         10.2440    -0.6780    -1.5190 hc         1 5KF       0.056200
     42 H20          9.8200    -2.7070    -3.7430 h1         1 5KF       0.020200
     43 H21          9.9970    -0.9610    -3.9630 h1         1 5KF       0.020200
     44 H22         12.0050    -2.0030    -4.2390 ho         1 5KF       0.401000
     45 H23          8.1700    -0.0920    -0.2280 hc         1 5KF       0.059200
     46 H24          8.1540    -1.8140     0.1980 hc         1 5KF       0.059200
     47 H25          3.9710    -0.0030    -2.1440 ha         1 5KF       0.138250
     48 H26          1.5100    -0.0060    -2.1400 ha         1 5KF       0.140750
@<TRIPOS>BOND
     1     1     2 1   
     2     9     8 ar  
     3     9    10 ar  
     4     3     2 ar  
     5     3     4 ar  
     6     2    24 ar  
     7    11    10 1   
     8     8     7 ar  
     9    10    12 ar  
    10     4     5 ar  
    11    24    23 ar  
    12     5    23 ar  
    13     5     6 1   
    14     7     6 1   
    15     7    13 ar  
    16    12    13 ar  
    17     6    14 2   
    18    21    20 1   
    19    14    15 1   
    20    14    22 1   
    21    16    15 1   
    22    16    17 1   
    23    18    22 1   
    24    18    17 1   
    25    18    19 1   
    26    20    19 1   
    27     1    25 1   
    28     3    26 1   
    29     4    27 1   
    30     8    28 1   
    31     9    29 1   
    32    11    30 1   
    33    12    31 1   
    34    13    32 1   
    35    15    33 1   
    36    15    34 1   
    37    16    35 1   
    38    16    36 1   
    39    17    37 1   
    40    17    38 1   
    41    18    39 1   
    42    19    40 1   
    43    19    41 1   
    44    20    42 1   
    45    20    43 1   
    46    21    44 1   
    47    22    45 1   
    48    22    46 1   
    49    23    47 1   
    50    24    48 1   
@<TRIPOS>SUBSTRUCTURE
     1 5KF         1 TEMP              0 ****  ****    0 ROOT
