@<TRIPOS>MOLECULE
molecule
   48    50     1     0     0
SMALL
bcc


@<TRIPOS>ATOM
      1 C01          0.0000     0.0000     0.0000 ca         1 5KG      -0.104750
      2 C02          1.3780     0.0000     0.0000 ca         1 5KG      -0.153750
      3 C03          2.0740     0.0000     1.2020 ca         1 5KG       0.103600
      4 O01          3.4330     0.0000     1.1990 oh         1 5KG      -0.522100
      5 C04          1.3850     0.0000     2.4060 ca         1 5KG      -0.153750
      6 C05          0.0060    -0.0000     2.4140 ca         1 5KG      -0.104750
      7 C06         -0.6960     0.0000     1.2080 ca         1 5KG      -0.051300
      8 C07         -2.1790    -0.0020     1.2120 ce         1 5KG      -0.039400
      9 C08         -2.9220     1.1610     0.6700 ca         1 5KG      -0.051300
     10 C09         -3.7200     1.0140    -0.4630 ca         1 5KG      -0.104750
     11 C10         -4.4100     2.0970    -0.9640 ca         1 5KG      -0.153750
     12 C11         -4.3110     3.3340    -0.3420 ca         1 5KG       0.103600
     13 O02         -4.9920     4.4000    -0.8370 oh         1 5KG      -0.522100
     14 C12         -3.5170     3.4840     0.7880 ca         1 5KG      -0.153750
     15 C13         -2.8290     2.4040     1.2970 ca         1 5KG      -0.104750
     16 C14         -2.8460    -1.0530     1.7030 c2         1 5KG      -0.090400
     17 C15         -2.1070    -2.2490     2.2610 c3         1 5KG      -0.046700
     18 C16         -2.6630    -3.5160     1.6010 c3         1 5KG      -0.072400
     19 C17         -4.3580    -1.0710     1.7230 c3         1 5KG      -0.046700
     20 C18         -4.8370    -2.3780     1.0820 c3         1 5KG      -0.072400
     21 C19         -4.1800    -3.5650     1.7960 c3         1 5KG      -0.072700
     22 C20         -4.7230    -4.8730     1.2180 c3         1 5KG      -0.077400
     23 C21         -6.2190    -4.9810     1.5210 c3         1 5KG       0.138400
     24 O03         -6.7270    -6.2040     0.9830 oh         1 5KG      -0.612800
     25 H1          -0.5420     0.0000    -0.9380 ha         1 5KG       0.138750
     26 H2           1.9200    -0.0000    -0.9380 ha         1 5KG       0.140750
     27 H3           3.7480    -0.8880     1.1970 ho         1 5KG       0.418000
     28 H4           1.9310     0.0000     3.3420 ha         1 5KG       0.140750
     29 H5          -0.5310    -0.0000     3.3540 ha         1 5KG       0.138750
     30 H7          -3.7980     0.0490    -0.9500 ha         1 5KG       0.138750
     31 H8          -5.0310     1.9830    -1.8450 ha         1 5KG       0.140750
     32 H9          -5.8450     4.4410    -0.4380 ho         1 5KG       0.418000
     33 H10         -3.4430     4.4500     1.2730 ha         1 5KG       0.140750
     34 H11         -2.2090     2.5220     2.1780 ha         1 5KG       0.138750
     35 H13         -1.0500    -2.1580     2.0410 hc         1 5KG       0.056200
     36 H14         -2.2580    -2.3010     3.3330 hc         1 5KG       0.056200
     37 H15         -2.4360    -3.4990     0.5420 hc         1 5KG       0.045950
     38 H16         -2.2130    -4.3880     2.0600 hc         1 5KG       0.045950
     39 H17         -4.7390    -0.2290     1.1590 hc         1 5KG       0.056200
     40 H18         -4.7080    -1.0190     2.7470 hc         1 5KG       0.056200
     41 H19         -5.9140    -2.4520     1.1760 hc         1 5KG       0.045950
     42 H20         -4.5600    -2.3880     0.0350 hc         1 5KG       0.045950
     43 H21         -4.4060    -3.5140     2.8540 hc         1 5KG       0.050700
     44 H22         -4.2020    -5.7100     1.6670 hc         1 5KG       0.055200
     45 H23         -4.5700    -4.8860     0.1450 hc         1 5KG       0.055200
     46 H24         -6.3720    -4.9680     2.5930 h1         1 5KG       0.019700
     47 H25         -6.7400    -4.1450     1.0710 h1         1 5KG       0.019700
     48 H26         -7.6250    -6.3150     1.2460 ho         1 5KG       0.401000
@<TRIPOS>BOND
     1    23    24 1
     2    23    22 1
     3    21    18 1
     4    21    20 1
     5    21    22 1
     6    17    18 1
     7    17    16 1
     8    19    20 1
     9    19    16 1
    10    16     8 2
    11    10    11 ar
    12    10     9 ar
    13    11    12 ar
    14     8     9 1
    15     8     7 1
    16     1     7 ar
    17     1     2 ar
    18     9    15 ar
    19     7     6 ar
    20     2     3 ar
    21    12    13 1
    22    12    14 ar
    23     6     5 ar
    24     3     5 ar
    25     3     4 1
    26    15    14 ar
    27     1    25 1
    28     2    26 1
    29     4    27 1
    30     5    28 1
    31     6    29 1
    32    10    30 1
    33    11    31 1
    34    13    32 1
    35    14    33 1
    36    15    34 1
    37    17    35 1
    38    17    36 1
    39    18    37 1
    40    18    38 1
    41    19    39 1
    42    19    40 1
    43    20    41 1
    44    20    42 1
    45    21    43 1
    46    22    44 1
    47    22    45 1
    48    23    46 1
    49    23    47 1
    50    24    48 1
@<TRIPOS>SUBSTRUCTURE
     1 5KG         1 TEMP              0 ****  ****    0 ROOT
