@<TRIPOS>MOLECULE
molecule
   52    55     1     0     0
SMALL
bcc


@<TRIPOS>ATOM
      1 C14          0.0000     0.0000     0.0000 ca         1 5KH      -0.138000
      2 C15          1.3800     0.0000     0.0000 ca         1 5KH      -0.078000
      3 C16         -0.7790    -0.0020     3.6980 c3         1 5KH       0.676200
      4 C10          2.0740     0.0000     1.2110 ca         1 5KH      -0.146600
      5 C11          1.3660    -0.0000     2.4140 ca         1 5KH      -0.031000
      6 C12         -0.0130    -0.0000     2.4000 ca         1 5KH      -0.189300
      7 C13         -0.6950    -0.0010     1.1960 ca         1 5KH      -0.061000
      8 C01          8.8410     1.0120    -1.4030 c3         1 5KH      -0.171100
      9 O03         10.0090    -0.4400     0.0440 o          1 5KH      -0.555100
     10 N04          7.7990    -0.5770     0.1790 n          1 5KH      -0.222200
     11 C05          6.5180    -0.2220    -0.1840 cc         1 5KH      -0.063400
     12 C06          5.6280    -0.9420     0.5250 cd         1 5KH       0.025400
     13 N07          4.2300    -0.8620     0.4350 n          1 5KH      -0.299200
     14 C08          3.5520    -0.0010     1.2200 c          1 5KH       0.683700
     15 O09          4.1560     0.7770     1.9330 o          1 5KH      -0.565100
     16 F17         -2.0000    -0.6610     3.5190 f          1 5KH      -0.221967
     17 F18         -0.0320    -0.6620     4.6790 f          1 5KH      -0.221967
     18 F19         -1.0160     1.3170     4.1000 f          1 5KH      -0.221967
     19 C20          3.5400    -1.6780    -0.4670 ca         1 5KH       0.053600
     20 C21          3.3830    -1.2760    -1.7880 ca         1 5KH      -0.101300
     21 C22          3.9570     0.0400    -2.2490 c3         1 5KH      -0.054800
     22 C23          2.7030    -2.0810    -2.6800 ca         1 5KH      -0.114000
     23 C24          2.1750    -3.2880    -2.2620 ca         1 5KH      -0.145000
     24 C25          2.3280    -3.6950    -0.9440 ca         1 5KH       0.111100
     25 C26          3.0150    -2.8920    -0.0470 ca         1 5KH      -0.138000
     26 O27          1.8070    -4.8810    -0.5340 oh         1 5KH      -0.517100
     27 C28          6.3990    -1.8260     1.4120 ca         1 5KH      -0.093800
     28 C29          7.7540    -1.5580     1.1550 ca         1 5KH       0.016600
     29 C30          8.7320    -2.2550     1.8510 ca         1 5KH      -0.114000
     30 C31          8.3700    -3.1970     2.7910 ca         1 5KH      -0.111000
     31 C32          7.0330    -3.4580     3.0490 ca         1 5KH      -0.141000
     32 C33          6.0460    -2.7830     2.3640 ca         1 5KH      -0.084000
     33 H1          -0.5400     0.0000    -0.9390 ha         1 5KH       0.142000
     34 H2           1.9230     0.0000    -0.9370 ha         1 5KH       0.153000
     35 H3           1.8990    -0.0000     3.3570 ha         1 5KH       0.163000
     36 H4          -1.7790    -0.0000     1.1900 ha         1 5KH       0.149000
     37 H5           8.2540     1.8440    -1.0330 hc         1 5KH       0.069700
     38 H6           9.8390     1.3550    -1.6470 hc         1 5KH       0.069700
     39 H7           8.3710     0.6060    -2.2910 hc         1 5KH       0.069700
     40 H8           6.2650     0.5230    -0.9270 h4         1 5KH       0.177000
     41 H9           4.0470     0.7110    -1.4030 hc         1 5KH       0.049033
     42 H10          3.3020     0.4800    -2.9920 hc         1 5KH       0.049033
     43 H11          4.9360    -0.1260    -2.6840 hc         1 5KH       0.049033
     44 H12          2.5820    -1.7660    -3.7090 ha         1 5KH       0.140000
     45 H13          1.6400    -3.9160    -2.9640 ha         1 5KH       0.145000
     46 H14          3.1350    -3.2080     0.9820 ha         1 5KH       0.154000
     47 H15          2.4370    -5.5670    -0.6780 ho         1 5KH       0.423000
     48 H16          9.7800    -2.0580     1.6570 ha         1 5KH       0.160000
     49 H17          9.1370    -3.7350     3.3350 ha         1 5KH       0.137000
     50 H18          6.7620    -4.2010     3.7900 ha         1 5KH       0.133000
     51 H19          5.0030    -2.9890     2.5680 ha         1 5KH       0.133000
     52 C02          8.9260    -0.0530    -0.3420 c          1 5KH       0.670100
@<TRIPOS>BOND
     1     1     7 ar
     2     1     2 ar
     3     7     6 ar
     4     2     4 ar
     5     6     5 ar
     6     6     3 1
     7     4     5 ar
     8     4    14 1
     9    16     3 1
    10    15    14 2
    11    21    20 1
    12    17     3 1
    13     3    18 1
    14    14    13 1
    15    20    22 ar
    16    20    19 ar
    17    13    19 1
    18    13    12 1
    19    22    23 ar
    20    19    25 ar
    21    12    11 2
    22    12    27 1
    23    11    10 1
    24    27    32 ar
    25    27    28 ar
    26    23    24 ar
    27    32    31 ar
    28    25    24 ar
    29     8    52 1
    30    10    28 1
    31    10    52 1
    32    28    29 ar
    33    52     9 2
    34    24    26 1
    35    31    30 ar
    36    29    30 ar
    37     1    33 1
    38     2    34 1
    39     5    35 1
    40     7    36 1
    41     8    37 1
    42     8    38 1
    43     8    39 1
    44    11    40 1
    45    21    41 1
    46    21    42 1
    47    21    43 1
    48    22    44 1
    49    23    45 1
    50    25    46 1
    51    26    47 1
    52    29    48 1
    53    30    49 1
    54    31    50 1
    55    32    51 1
@<TRIPOS>SUBSTRUCTURE
     1 5KH         1 TEMP              0 ****  ****    0 ROOT
