@<TRIPOS>MOLECULE
5KH
   52    55     1     0     0
SMALL
bcc


@<TRIPOS>ATOM
      1 C14          0.0000     0.0000     0.0000 ca         1 5KH      -0.110000
      2 C15          1.3800     0.0000     0.0000 ca         1 5KH      -0.071000
      3 C16         -0.7790    -0.0020     3.6980 c3         1 5KH       0.642200
      4 C10          2.0740     0.0000     1.2110 ca         1 5KH      -0.153600
      5 C11          1.3660    -0.0000     2.4140 ca         1 5KH       0.011000
      6 C12         -0.0130    -0.0000     2.4000 ca         1 5KH      -0.220300
      7 C13         -0.6950    -0.0010     1.1960 ca         1 5KH      -0.025000
      8 C01          8.8410     1.0120    -1.4030 c3         1 5KH      -0.075100
      9 O03         10.0090    -0.4400     0.0440 o          1 5KH      -0.588100
     10 N04          7.7990    -0.5770     0.1790 n          1 5KH       0.257800
     11 C05          6.5180    -0.2220    -0.1840 cc         1 5KH      -0.211400
     12 C06          5.6280    -0.9420     0.5250 cd         1 5KH      -0.098600
     13 N07          4.2300    -0.8620     0.4350 n          1 5KH       0.128800
     14 C08          3.5520    -0.0010     1.2200 c          1 5KH       0.590700
     15 O09          4.1560     0.7770     1.9330 o          1 5KH      -0.617100
     16 F17         -2.0000    -0.6610     3.5190 f          1 5KH      -0.206967
     17 F18         -0.0320    -0.6620     4.6790 f          1 5KH      -0.206967
     18 F19         -1.0160     1.3170     4.1000 f          1 5KH      -0.206967
     19 C20          3.5400    -1.6780    -0.4670 ca         1 5KH      -0.084400
     20 C21          3.3830    -1.2760    -1.7880 ca         1 5KH      -0.108300
     21 C22          3.9570     0.0400    -2.2490 c3         1 5KH       0.046200
     22 C23          2.7030    -2.0810    -2.6800 ca         1 5KH      -0.079000
     23 C24          2.1750    -3.2880    -2.2620 ca         1 5KH      -0.123000
     24 C25          2.3280    -3.6950    -0.9440 ca         1 5KH       0.130100
     25 C26          3.0150    -2.8920    -0.0470 ca         1 5KH      -0.119000
     26 O27          1.8070    -4.8810    -0.5340 oh         1 5KH      -0.496100
     27 C28          6.3990    -1.8260     1.4120 ca         1 5KH      -0.090800
     28 C29          7.7540    -1.5580     1.1550 ca         1 5KH      -0.148400
     29 C30          8.7320    -2.2550     1.8510 ca         1 5KH      -0.077000
     30 C31          8.3700    -3.1970     2.7910 ca         1 5KH      -0.086000
     31 C32          7.0330    -3.4580     3.0490 ca         1 5KH      -0.110000
     32 C33          6.0460    -2.7830     2.3640 ca         1 5KH      -0.055000
     33 H1          -0.5400     0.0000    -0.9390 ha         1 5KH       0.112000
     34 H2           1.9230     0.0000    -0.9370 ha         1 5KH       0.133000
     35 H3           1.8990    -0.0000     3.3570 ha         1 5KH       0.131000
     36 H4          -1.7790    -0.0000     1.1900 ha         1 5KH       0.117000
     37 H5           8.2540     1.8440    -1.0330 hc         1 5KH       0.030700
     38 H6           9.8390     1.3550    -1.6470 hc         1 5KH       0.030700
     39 H7           8.3710     0.6060    -2.2910 hc         1 5KH       0.030700
     40 H8           6.2650     0.5230    -0.9270 h4         1 5KH       0.155000
     41 H9           4.0470     0.7110    -1.4030 hc         1 5KH       0.016367
     42 H10          3.3020     0.4800    -2.9920 hc         1 5KH       0.016367
     43 H11          4.9360    -0.1260    -2.6840 hc         1 5KH       0.016367
     44 H12          2.5820    -1.7660    -3.7090 ha         1 5KH       0.112000
     45 H13          1.6400    -3.9160    -2.9640 ha         1 5KH       0.118000
     46 H14          3.1350    -3.2080     0.9820 ha         1 5KH       0.127000
     47 H15          2.4370    -5.5670    -0.6780 ho         1 5KH       0.407000
     48 H16          9.7800    -2.0580     1.6570 ha         1 5KH       0.135000
     49 H17          9.1370    -3.7350     3.3350 ha         1 5KH       0.106000
     50 H18          6.7620    -4.2010     3.7900 ha         1 5KH       0.105000
     51 H19          5.0030    -2.9890     2.5680 ha         1 5KH       0.103000
     52 C02          8.9260    -0.0530    -0.3420 c          1 5KH       0.559100
@<TRIPOS>BOND
     1     1     2 ar  
     2     1     7 ar  
     3     1    33 1   
     4     2     4 ar  
     5     2    34 1   
     6     3     6 1   
     7     3    16 1   
     8     3    17 1   
     9     3    18 1   
    10     4     5 ar  
    11     4    14 1   
    12     5     6 ar  
    13     5    35 1   
    14     6     7 ar  
    15     7    36 1   
    16     8    37 1   
    17     8    38 1   
    18     8    39 1   
    19     8    52 1   
    20     9    52 2   
    21    10    11 1   
    22    10    28 1   
    23    10    52 1   
    24    11    12 2   
    25    11    40 1   
    26    12    13 1   
    27    12    27 1   
    28    13    14 1   
    29    13    19 1   
    30    14    15 2   
    31    19    20 ar  
    32    19    25 ar  
    33    20    21 1   
    34    20    22 ar  
    35    21    41 1   
    36    21    42 1   
    37    21    43 1   
    38    22    23 ar  
    39    22    44 1   
    40    23    24 ar  
    41    23    45 1   
    42    24    25 ar  
    43    24    26 1   
    44    25    46 1   
    45    26    47 1   
    46    27    28 ar  
    47    27    32 ar  
    48    28    29 ar  
    49    29    30 ar  
    50    29    48 1   
    51    30    31 ar  
    52    30    49 1   
    53    31    32 ar  
    54    31    50 1   
    55    32    51 1   
@<TRIPOS>SUBSTRUCTURE
     1 5KH         1 TEMP              0 ****  ****    0 ROOT
