@<TRIPOS>MOLECULE
5KJ
   30    29     1     0     0
SMALL
bcc


@<TRIPOS>ATOM
      1 OA2          0.0000     0.0000     0.0000 o          1 5KJ      -0.816800
      2 C            1.2090     0.0000     0.0000 c          1 5KJ       0.954600
      3 OA1          1.8790     0.0000     1.1640 o          1 5KJ      -0.816800
      4 CA           1.9630    -0.0070    -1.3040 c3         1 5KJ      -0.201500
      5 N            1.0810    -0.4860    -2.3770 nz         1 5KJ       0.082400
      6 CB           2.4360     1.4120    -1.6280 c3         1 5KJ      -0.017400
      7 CG           3.3060     1.3860    -2.8850 c3         1 5KJ      -0.080400
      8 CD           3.7790     2.8040    -3.2090 c3         1 5KJ       0.192800
      9 NE           4.6120     2.7790    -4.4130 nh         1 5KJ      -0.527600
     10 C1           3.9980     2.9460    -5.7330 c3         1 5KJ       0.212100
     11 CZ           5.9710     2.5980    -4.3050 c2         1 5KJ       0.569100
     12 NH1          6.5170     2.4490    -3.1310 n2         1 5KJ      -0.824100
     13 NH2          6.7540     2.5740    -5.4350 nu         1 5KJ      -0.277700
     14 OH           8.1520     2.3880    -5.3240 oh         1 5KJ      -0.379300
     15 H2           2.8210    -0.6630    -1.2210 hx         1 5KJ       0.090700
     16 H3           0.5620    -1.2780    -2.0540 hn         1 5KJ       0.210800
     17 H4           1.6330    -0.7490    -3.1700 hn         1 5KJ       0.210800
     18 H6           3.0130     1.7980    -0.7970 hc         1 5KJ       0.054700
     19 H7           1.5760     2.0490    -1.7970 hc         1 5KJ       0.054700
     20 H8           2.7280     0.9990    -3.7160 hc         1 5KJ       0.013700
     21 H9           4.1660     0.7490    -2.7160 hc         1 5KJ       0.013700
     22 H10          4.3560     3.1910    -2.3780 h1         1 5KJ       0.035700
     23 H11          2.9190     3.4410    -3.3780 h1         1 5KJ       0.035700
     24 H12          4.1670     2.0550    -6.3250 h1         1 5KJ       0.002700
     25 H13          2.9330     3.1070    -5.6180 h1         1 5KJ       0.002700
     26 H14          4.4400     3.8000    -6.2310 h1         1 5KJ       0.002700
     27 H15          5.9470     2.4660    -2.3080 hn         1 5KJ       0.333400
     28 H17          6.3370     2.7070    -6.3350 hn         1 5KJ       0.272800
     29 H18          8.5530     2.5070    -6.1690 ho         1 5KJ       0.385000
     30 HN3          0.4480     0.2440    -2.6390 hn         1 5KJ       0.210800
@<TRIPOS>BOND
     1     1     2 1   
     2     2     3 1   
     3     2     4 1   
     4     4     5 1   
     5     4     6 1   
     6     4    15 1   
     7     5    16 1   
     8     5    17 1   
     9     5    30 1   
    10     6     7 1   
    11     6    18 1   
    12     6    19 1   
    13     7     8 1   
    14     7    20 1   
    15     7    21 1   
    16     8     9 1   
    17     8    22 1   
    18     8    23 1   
    19     9    10 1   
    20     9    11 1   
    21    10    24 1   
    22    10    25 1   
    23    10    26 1   
    24    11    12 2   
    25    11    13 1   
    26    12    27 1   
    27    13    14 1   
    28    13    28 1   
    29    14    29 1   
@<TRIPOS>SUBSTRUCTURE
     1 5KJ         1 TEMP              0 ****  ****    0 ROOT
