@<TRIPOS>MOLECULE
molecule
   30    29     1     0     0
SMALL
bcc


@<TRIPOS>ATOM
      1 OA2          0.0000     0.0000     0.0000 o          1 5KJ      -0.777300
      2 C            1.2090     0.0000     0.0000 c          1 5KJ       0.868600
      3 OA1          1.8790     0.0000     1.1640 o          1 5KJ      -0.777300
      4 CA           1.9630    -0.0070    -1.3040 c3         1 5KJ      -0.016500
      5 N            1.0810    -0.4860    -2.3770 nz         1 5KJ      -0.790600
      6 CB           2.4360     1.4120    -1.6280 c3         1 5KJ      -0.088400
      7 CG           3.3060     1.3860    -2.8850 c3         1 5KJ      -0.126400
      8 CD           3.7790     2.8040    -3.2090 c3         1 5KJ       0.268800
      9 NE           4.6120     2.7790    -4.4130 nh         1 5KJ      -0.810600
     10 C1           3.9980     2.9460    -5.7330 c3         1 5KJ       0.222100
     11 CZ           5.9710     2.5980    -4.3050 c2         1 5KJ       0.879100
     12 NH1          6.5170     2.4490    -3.1310 n2         1 5KJ      -0.947100
     13 NH2          6.7540     2.5740    -5.4350 nu         1 5KJ      -0.755700
     14 OH           8.1520     2.3880    -5.3240 oh         1 5KJ      -0.328300
     15 H2           2.8210    -0.6630    -1.2210 hx         1 5KJ       0.108700
     16 H3           0.4490     0.2440    -2.6400 hn         1 5KJ       0.437800
     17 H4           0.5610    -1.2770    -2.0530 hn         1 5KJ       0.437800
     18 H6           3.0130     1.7980    -0.7970 hc         1 5KJ       0.085700
     19 H7           1.5760     2.0490    -1.7970 hc         1 5KJ       0.085700
     20 H8           4.1660     0.7490    -2.7160 hc         1 5KJ       0.038200
     21 H9           2.7280     0.9990    -3.7160 hc         1 5KJ       0.038200
     22 H10          2.9190     3.4410    -3.3780 h1         1 5KJ       0.069200
     23 H11          4.3560     3.1910    -2.3780 h1         1 5KJ       0.069200
     24 H12          4.4400     3.8000    -6.2310 h1         1 5KJ       0.034700
     25 H13          4.1670     2.0550    -6.3250 h1         1 5KJ       0.034700
     26 H14          2.9330     3.1070    -5.6180 h1         1 5KJ       0.034700
     27 H15          7.5060     2.3170    -3.0520 hn         1 5KJ       0.424400
     28 H17          6.3380     2.7150    -6.3340 hn         1 5KJ       0.433800
     29 H18          8.5480     2.4630    -6.1760 ho         1 5KJ       0.410000
     30 HN3          1.6330    -0.7510    -3.1690 hn         1 5KJ       0.437800
@<TRIPOS>BOND
     1    14    13 1   
     2    13    11 1   
     3     8     9 1   
     4     8     7 1   
     5    11    12 2   
     6    11     9 1   
     7    10     9 1   
     8     6     7 1   
     9     6     4 1   
    10     1     2 1   
    11     2     4 1   
    12     2     3 1   
    13     4     5 1   
    14     4    15 1   
    15     5    16 1   
    16     5    17 1   
    17     6    18 1   
    18     6    19 1   
    19     7    20 1   
    20     7    21 1   
    21     8    22 1   
    22     8    23 1   
    23    10    24 1   
    24    10    25 1   
    25    10    26 1   
    26    12    27 1   
    27    13    28 1   
    28    14    29 1   
    29    30     5 1   
@<TRIPOS>SUBSTRUCTURE
     1 5KJ         1 TEMP              0 ****  ****    0 ROOT
