@<TRIPOS>MOLECULE
molecule
   50    51     1     0     0
SMALL
bcc


@<TRIPOS>ATOM
      1 C1           0.0000     0.0000     0.0000 c3         1 5KK       0.345667
      2 N1           1.4900     0.0000     0.0000 n7         1 5KK      -0.803867
      3 C4           1.9270     0.0000     1.4300 c3         1 5KK       0.140133
      4 C7           3.2650    -0.7320     1.4950 c3         1 5KK       0.140133
      5 N4           4.0740    -0.3630     0.3060 n7         1 5KK      -0.803867
      6 C11          4.6880    -1.5920    -0.2310 c3         1 5KK       0.345667
      7 N8           5.1350    -1.3770    -1.6280 n3         1 5KK      -0.676100
      8 C10          4.1260    -1.9120    -2.5710 c3         1 5KK       0.345667
      9 N6           3.1050    -2.7230    -1.8520 n7         1 5KK      -0.803867
     10 C8           2.0660    -3.0940    -2.8620 c3         1 5KK       0.140133
     11 C6           1.2460    -1.8600    -3.2190 c3         1 5KK       0.140133
     12 N3           0.7280    -1.2420    -1.9590 n7         1 5KK      -0.803867
     13 C3          -0.2770    -0.2200    -2.3560 c3         1 5KK       0.345667
     14 N7          -0.4490     0.7570    -1.2260 n3         1 5KK      -0.676100
     15 C2           0.6390     1.7770    -1.4310 c3         1 5KK       0.345667
     16 N2           1.6540     1.2020    -2.3540 n7         1 5KK      -0.803867
     17 C5           2.5150     2.3400    -2.7960 c3         1 5KK       0.140133
     18 C9           3.9680     2.0100    -2.4660 c3         1 5KK       0.140133
     19 N5           4.2060     0.5670    -2.7670 n7         1 5KK      -0.803867
     20 C12          5.2770     0.0870    -1.8530 c3         1 5KK       0.345667
     21 H1          -0.3690     0.4910     0.8920 h2         1 5KK       0.052950
     22 H2          -0.3690    -1.0180    -0.0390 h2         1 5KK       0.052950
     23 H3           1.8230    -0.8290    -0.4500 hn         1 5KK       0.366800
     24 H5           2.0460     1.0190     1.7790 h1         1 5KK       0.035450
     25 H6           1.1950    -0.5150     2.0390 h1         1 5KK       0.035450
     26 H7           3.7930    -0.4450     2.3970 h1         1 5KK       0.035450
     27 H8           3.0940    -1.8020     1.5000 h1         1 5KK       0.035450
     28 H9           3.4810     0.0450    -0.3880 hn         1 5KK       0.366800
     29 H11          5.5400    -1.8630     0.3800 h2         1 5KK       0.052950
     30 H12          3.9610    -2.3950    -0.2070 h2         1 5KK       0.052950
     31 H14          4.6210    -2.5340    -3.3060 h2         1 5KK       0.052950
     32 H15          3.6360    -1.0870    -3.0740 h2         1 5KK       0.052950
     33 H16          3.5310    -3.5540    -1.4920 hn         1 5KK       0.366800
     34 H18          1.4150    -3.8540    -2.4490 h1         1 5KK       0.035450
     35 H19          2.5490    -3.4770    -3.7530 h1         1 5KK       0.035450
     36 H20          1.8710    -1.1480    -3.7430 h1         1 5KK       0.035450
     37 H21          0.4140    -2.1480    -3.8510 h1         1 5KK       0.035450
     38 H22          0.2860    -1.9450    -1.4000 hn         1 5KK       0.366800
     39 H24          0.0670     0.3030    -3.2400 h2         1 5KK       0.052950
     40 H25         -1.2240    -0.7040    -2.5650 h2         1 5KK       0.052950
     41 H27          1.1020     2.0130    -0.4810 h2         1 5KK       0.052950
     42 H28          0.2190     2.6760    -1.8650 h2         1 5KK       0.052950
     43 H29          1.1940     0.8030    -3.1490 hn         1 5KK       0.366800
     44 H31          2.4080     2.4830    -3.8650 h1         1 5KK       0.035450
     45 H32          2.2190     3.2430    -2.2770 h1         1 5KK       0.035450
     46 H33          4.6270     2.6220    -3.0690 h1         1 5KK       0.035450
     47 H34          4.1550     2.1990    -1.4160 h1         1 5KK       0.035450
     48 H35          4.5090     0.4700    -3.7160 hn         1 5KK       0.366800
     49 H37          5.1990     0.6050    -0.9050 h2         1 5KK       0.052950
     50 H38          6.2450     0.2900    -2.2960 h2         1 5KK       0.052950
@<TRIPOS>BOND
     1    10    11 1   
     2    10     9 1   
     3    11    12 1   
     4    12    13 1   
     5     9     8 1   
     6     8     7 1   
     7    13    14 1   
     8     2     1 1   
     9     2     3 1   
    10     1    14 1   
    11    14    15 1   
    12     7     6 1   
    13     7    20 1   
    14     3     4 1   
    15     4     5 1   
    16     6     5 1   
    17    19    20 1   
    18    19    18 1   
    19    15    16 1   
    20    16    17 1   
    21    17    18 1   
    22     1    21 1   
    23     1    22 1   
    24     2    23 1   
    25     3    24 1   
    26     3    25 1   
    27     4    26 1   
    28     4    27 1   
    29     5    28 1   
    30     6    29 1   
    31     6    30 1   
    32     8    31 1   
    33     8    32 1   
    34     9    33 1   
    35    10    34 1   
    36    10    35 1   
    37    11    36 1   
    38    11    37 1   
    39    12    38 1   
    40    13    39 1   
    41    13    40 1   
    42    15    41 1   
    43    15    42 1   
    44    16    43 1   
    45    17    44 1   
    46    17    45 1   
    47    18    46 1   
    48    18    47 1   
    49    19    48 1   
    50    20    49 1   
    51    20    50 1   
@<TRIPOS>SUBSTRUCTURE
     1 5KK         1 TEMP              0 ****  ****    0 ROOT
