@<TRIPOS>MOLECULE
5KL
   27    29     1     0     0
SMALL
bcc


@<TRIPOS>ATOM
      1 CAA          0.0000     0.0000     0.0000 c3         1 5KL      -0.135500
      2 NAB          1.4650     0.0000     0.0000 nx         1 5KL       0.217000
      3 CAC          2.1970     0.0000     1.2690 c3         1 5KL      -0.135500
      4 CAD          2.1480     0.0010    -1.1820 c2         1 5KL      -0.122000
      5 CAE          1.4730     0.0010    -2.3530 c2         1 5KL      -0.695000
      6 CAF          2.1790     0.0020    -3.5770 c3         1 5KL       0.467000
      7 OAN          3.3970     0.0030    -3.5770 o          1 5KL      -0.396000
      8 CAG          1.4410     0.0020    -4.8560 ca         1 5KL      -0.190000
      9 CAH          0.0440     0.0080    -4.8610 ca         1 5KL      -0.018000
     10 CAI         -0.6400     0.0090    -6.0580 ca         1 5KL      -0.162000
     11 CAJ          0.0530     0.0040    -7.2580 ca         1 5KL      -0.046000
     12 CAK          1.4340    -0.0000    -7.2670 ca         1 5KL      -0.207000
     13 CAL          2.1370     0.0040    -6.0710 ca         1 5KL       0.150000
     14 OAM          3.4940     0.0050    -6.0800 oh         1 5KL      -0.212000
     15 H1          -0.3610     0.9380    -0.4050 hx         1 5KL       0.073667
     16 H2          -0.3610    -0.1190     1.0140 hx         1 5KL       0.073667
     17 H3          -0.3610    -0.8190    -0.6100 hx         1 5KL       0.073667
     18 H4           1.9350     0.8840     1.8380 hx         1 5KL       0.073667
     19 H5           1.9360    -0.8850     1.8370 hx         1 5KL       0.073667
     20 H6           3.2630     0.0010     1.0710 hx         1 5KL       0.073667
     21 H7           1.6820     0.8760    -0.7440 DU         1 5KL       0.219000
     22 H8           1.9380     0.8760    -2.7900 DU         1 5KL       0.184000
     23 H9          -0.5020     0.0120    -3.9250 ha         1 5KL       0.129000
     24 H10         -1.7230     0.0120    -6.0610 ha         1 5KL       0.104000
     25 H11         -0.4920     0.0030    -8.1940 ha         1 5KL       0.097000
     26 H12          1.9690    -0.0020    -8.2090 ha         1 5KL       0.111000
     27 H13          3.8050    -0.6650    -6.6660 ho         1 5KL       0.197000
@<TRIPOS>BOND
     1     1     2 1   
     2     1    15 1   
     3     1    16 1   
     4     1    17 1   
     5     2     3 1   
     6     2     4 1   
     7     2    21 1   
     8     3    18 1   
     9     3    19 1   
    10     3    20 1   
    11     4     5 1   
    12     4    21 1   
    13     5     6 1   
    14     5    22 1   
    15     6     7 1   
    16     6     8 1   
    17     6    22 1   
    18     8     9 1   
    19     8    13 1   
    20     9    10 1   
    21     9    23 1   
    22    10    11 1   
    23    10    24 1   
    24    11    12 1   
    25    11    25 1   
    26    12    13 1   
    27    12    26 1   
    28    13    14 1   
    29    14    27 1   
@<TRIPOS>SUBSTRUCTURE
     1 5KL         1 TEMP              0 ****  ****    0 ROOT
