@<TRIPOS>MOLECULE
molecule
   27    27     1     0     0
SMALL
bcc


@<TRIPOS>ATOM
      1 CAA          0.0000     0.0000     0.0000 c3         1 5KL       0.220600
      2 NAB          1.4650     0.0000     0.0000 nh         1 5KL      -0.712400
      3 CAC          2.1970     0.0000     1.2690 c3         1 5KL       0.220600
      4 CAD          2.1480     0.0010    -1.1820 c2         1 5KL       0.180000
      5 CAE          1.4730     0.0010    -2.3530 ce         1 5KL      -0.427200
      6 CAF          2.1790     0.0020    -3.5770 c          1 5KL       0.603900
      7 OAN          3.3970     0.0030    -3.5770 o          1 5KL      -0.560100
      8 CAG          1.4410     0.0020    -4.8560 ca         1 5KL      -0.183600
      9 CAH          0.0440     0.0080    -4.8610 ca         1 5KL      -0.064000
     10 CAI         -0.6400     0.0090    -6.0580 ca         1 5KL      -0.178000
     11 CAJ          0.0530     0.0040    -7.2580 ca         1 5KL      -0.075000
     12 CAK          1.4340    -0.0000    -7.2670 ca         1 5KL      -0.228000
     13 CAL          2.1370     0.0040    -6.0710 ca         1 5KL       0.180100
     14 OAM          3.4940     0.0050    -6.0800 oh         1 5KL      -0.466100
     15 H1          -0.3610    -0.8920    -0.4980 h1         1 5KL       0.041200
     16 H2          -0.3610     0.0150     1.0210 h1         1 5KL       0.041200
     17 H3          -0.3610     0.8770    -0.5240 h1         1 5KL       0.041200
     18 H4           2.2110     1.0030     1.6790 h1         1 5KL       0.041200
     19 H5           3.2140    -0.3340     1.0990 h1         1 5KL       0.041200
     20 H6           1.7100    -0.6690     1.9680 h1         1 5KL       0.041200
     21 H7           3.2310     0.0030    -1.1820 h4         1 5KL       0.169000
     22 H8           0.3890    -0.0000    -2.3530 ha         1 5KL       0.128000
     23 H9          -0.5020     0.0120    -3.9250 ha         1 5KL       0.137000
     24 H10         -1.7230     0.0120    -6.0610 ha         1 5KL       0.130000
     25 H11         -0.4920     0.0030    -8.1940 ha         1 5KL       0.130000
     26 H12          1.9690    -0.0020    -8.2090 ha         1 5KL       0.133000
     27 H13          3.8030     0.4650    -6.8420 ho         1 5KL       0.415000
@<TRIPOS>BOND
     1     3     2 1   
     2     1     2 1   
     3     2     4 1   
     4     4     5 2   
     5     5     6 1   
     6     6     7 2   
     7     6     8 1   
     8     9     8 ar  
     9     9    10 ar  
    10     8    13 ar  
    11    10    11 ar  
    12    13    14 1   
    13    13    12 ar  
    14    11    12 ar  
    15     1    15 1   
    16     1    16 1   
    17     1    17 1   
    18     3    18 1   
    19     3    19 1   
    20     3    20 1   
    21     4    21 1   
    22     5    22 1   
    23     9    23 1   
    24    10    24 1   
    25    11    25 1   
    26    12    26 1   
    27    14    27 1   
@<TRIPOS>SUBSTRUCTURE
     1 5KL         1 TEMP              0 ****  ****    0 ROOT
