@<TRIPOS>MOLECULE
5KN
   40    42     1     0     0
SMALL
bcc


@<TRIPOS>ATOM
      1 C1           0.0000     0.0000     0.0000 ca         1 5KN      -0.126000
      2 C2           1.3830     0.0000     0.0000 ca         1 5KN      -0.142000
      3 C3           2.0800     0.0000     1.2010 ca         1 5KN      -0.001400
      4 C8           1.3890    -0.0020     2.4050 ca         1 5KN      -0.147000
      5 C4           4.0090    -1.1420     1.9540 c3         1 5KN       0.094300
      6 C5           5.5390    -1.0700     1.9770 c3         1 5KN       0.212900
      7 C6           5.5340     0.0630    -0.1340 c3         1 5KN       0.212900
      8 C7           4.0030     0.0030    -0.1760 c3         1 5KN       0.094300
      9 C10         -1.4330    -1.2650     3.8010 c3         1 5KN       0.088300
     10 C           -0.6940    -0.0020     1.2000 ca         1 5KN       0.020600
     11 C9           0.0020    -0.0030     2.4080 ca         1 5KN      -0.021400
     12 N2          -0.6960    -0.0050     3.6200 nh         1 5KN      -0.361000
     13 C13          0.2110     0.2330     4.7520 c3         1 5KN       0.088300
     14 C12         -0.6000     0.2820     6.0490 c3         1 5KN       0.213900
     15 O1          -1.3350    -0.9370     6.1920 os         1 5KN      -0.411600
     16 C11         -2.2300    -1.2020     5.1080 c3         1 5KN       0.213900
     17 N1           3.4800     0.0010     1.1970 nh         1 5KN      -0.358000
     18 O            6.0280    -1.0380     0.6340 os         1 5KN      -0.411600
     19 H1          -0.5410     0.0000    -0.9380 ha         1 5KN       0.107000
     20 H2           1.9230     0.0010    -0.9390 ha         1 5KN       0.120000
     21 H3           1.9330    -0.0020     3.3420 ha         1 5KN       0.130000
     22 H4           3.6320    -1.1090     2.9690 h1         1 5KN       0.025450
     23 H5           3.6990    -2.0640     1.4780 h1         1 5KN       0.025450
     24 H6           5.9330    -1.9430     2.4840 h1         1 5KN       0.013200
     25 H7           5.8500    -0.1720     2.4960 h1         1 5KN       0.013200
     26 H8           5.8450     0.9930     0.3270 h1         1 5KN       0.013200
     27 H9           5.9250     0.0040    -1.1420 h1         1 5KN       0.013200
     28 H10          3.6230     0.8690    -0.7050 h1         1 5KN       0.025450
     29 H11          3.6910    -0.9030    -0.6820 h1         1 5KN       0.025450
     30 H12         -0.7320    -2.0900     3.8460 h1         1 5KN       0.028200
     31 H13         -2.1140    -1.4070     2.9700 h1         1 5KN       0.028200
     32 H14         -2.5980    -0.4300     0.4470 hn         1 5KN       0.271800
     33 H15         -2.5970     0.5000     1.9090 hn         1 5KN       0.271800
     34 H16          0.9350    -0.5700     4.8100 h1         1 5KN       0.028200
     35 H17          0.7220     1.1780     4.6120 h1         1 5KN       0.028200
     36 H18         -1.2900     1.1160     6.0120 h1         1 5KN       0.012450
     37 H19          0.0710     0.3980     6.8910 h1         1 5KN       0.012450
     38 H20         -2.9640    -0.4080     5.0440 h1         1 5KN       0.012450
     39 H21         -2.7270    -2.1500     5.2740 h1         1 5KN       0.012450
     40 N           -2.0980     0.0020     1.1990 nv         1 5KN      -0.479200
@<TRIPOS>BOND
     1     1     2 ar  
     2     1    10 ar  
     3     1    19 1   
     4     2     3 ar  
     5     2    20 1   
     6     3     4 ar  
     7     3    17 1   
     8     4    11 ar  
     9     4    21 1   
    10     5     6 1   
    11     5    17 1   
    12     5    22 1   
    13     5    23 1   
    14     6    18 1   
    15     6    24 1   
    16     6    25 1   
    17     7     8 1   
    18     7    18 1   
    19     7    26 1   
    20     7    27 1   
    21     8    17 1   
    22     8    28 1   
    23     8    29 1   
    24     9    12 1   
    25     9    16 1   
    26     9    30 1   
    27     9    31 1   
    28    10    11 ar  
    29    10    40 1   
    30    11    12 1   
    31    12    13 1   
    32    13    14 1   
    33    13    34 1   
    34    13    35 1   
    35    14    15 1   
    36    14    36 1   
    37    14    37 1   
    38    15    16 1   
    39    16    38 1   
    40    16    39 1   
    41    32    40 1   
    42    33    40 1   
@<TRIPOS>SUBSTRUCTURE
     1 5KN         1 TEMP              0 ****  ****    0 ROOT
