@<TRIPOS>MOLECULE
molecule
   40    42     1     0     0
SMALL
bcc


@<TRIPOS>ATOM
      1 C1           0.0000     0.0000     0.0000 ca         1 5KN      -0.156000
      2 C2           1.3830     0.0000     0.0000 ca         1 5KN      -0.162000
      3 C3           2.0800     0.0000     1.2010 ca         1 5KN       0.078600
      4 C8           1.3890    -0.0020     2.4050 ca         1 5KN      -0.164000
      5 C4           4.0090    -1.1420     1.9540 c3         1 5KN       0.125300
      6 C5           5.5390    -1.0700     1.9770 c3         1 5KN       0.136900
      7 C6           5.5340     0.0630    -0.1340 c3         1 5KN       0.136900
      8 C7           4.0030     0.0030    -0.1760 c3         1 5KN       0.125300
      9 C10         -1.4330    -1.2650     3.8010 c3         1 5KN       0.122300
     10 C           -0.6940    -0.0020     1.2000 ca         1 5KN       0.165600
     11 C9           0.0020    -0.0030     2.4080 ca         1 5KN       0.057600
     12 N2          -0.6960    -0.0050     3.6200 nh         1 5KN      -0.596000
     13 C13          0.2110     0.2330     4.7520 c3         1 5KN       0.122300
     14 C12         -0.6000     0.2820     6.0490 c3         1 5KN       0.136900
     15 O1          -1.3350    -0.9370     6.1920 os         1 5KN      -0.425600
     16 C11         -2.2300    -1.2020     5.1080 c3         1 5KN       0.136900
     17 N1           3.4800     0.0010     1.1970 nh         1 5KN      -0.593000
     18 O            6.0280    -1.0380     0.6340 os         1 5KN      -0.424600
     19 H1          -0.5410     0.0000    -0.9380 ha         1 5KN       0.132000
     20 H2           1.9230     0.0010    -0.9390 ha         1 5KN       0.135000
     21 H3           1.9330    -0.0020     3.3420 ha         1 5KN       0.143000
     22 H4           3.6320    -1.1090     2.9690 h1         1 5KN       0.049700
     23 H5           3.6990    -2.0640     1.4780 h1         1 5KN       0.049700
     24 H6           5.9330    -1.9430     2.4840 h1         1 5KN       0.054450
     25 H7           5.8500    -0.1720     2.4960 h1         1 5KN       0.054450
     26 H8           5.8450     0.9930     0.3270 h1         1 5KN       0.054450
     27 H9           5.9250     0.0040    -1.1420 h1         1 5KN       0.054450
     28 H10          3.6230     0.8690    -0.7050 h1         1 5KN       0.049700
     29 H11          3.6910    -0.9030    -0.6820 h1         1 5KN       0.049700
     30 H12         -0.7320    -2.0900     3.8460 h1         1 5KN       0.053200
     31 H13         -2.1140    -1.4070     2.9700 h1         1 5KN       0.053200
     32 H14         -2.5980    -0.4300     0.4470 hn         1 5KN       0.430800
     33 H15         -2.5970     0.5000     1.9090 hn         1 5KN       0.430800
     34 H16          0.9350    -0.5700     4.8100 h1         1 5KN       0.053200
     35 H17          0.7220     1.1780     4.6120 h1         1 5KN       0.053200
     36 H18         -1.2900     1.1160     6.0120 h1         1 5KN       0.053450
     37 H19          0.0710     0.3980     6.8910 h1         1 5KN       0.053450
     38 H20         -2.9640    -0.4080     5.0440 h1         1 5KN       0.053450
     39 H21         -2.7270    -2.1500     5.2740 h1         1 5KN       0.053450
     40 N           -2.0980     0.0020     1.1990 nv         1 5KN      -0.939200
@<TRIPOS>BOND
     1     7    18 1
     2     7     8 1
     3    18     6 1
     4     6     5 1
     5     8    17 1
     6    17     5 1
     7    17     3 1
     8     3     4 ar
     9     3     2 ar
    10     4    11 ar
    11    13    14 1
    12    13    12 1
    13    14    15 1
    14     2     1 ar
    15    11    12 1
    16    11    10 ar
    17    12     9 1
    18    15    16 1
    19     1    10 ar
    20    10    40 1
    21     9    16 1
    22     1    19 1
    23     2    20 1
    24     4    21 1
    25     5    22 1
    26     5    23 1
    27     6    24 1
    28     6    25 1
    29     7    26 1
    30     7    27 1
    31     8    28 1
    32     8    29 1
    33     9    30 1
    34     9    31 1
    35    40    32 1
    36    40    33 1
    37    13    34 1
    38    13    35 1
    39    14    36 1
    40    14    37 1
    41    16    38 1
    42    16    39 1
@<TRIPOS>SUBSTRUCTURE
     1 5KN         1 TEMP              0 ****  ****    0 ROOT
