@<TRIPOS>MOLECULE
molecule
   14    13     1     0     0
SMALL
bcc


@<TRIPOS>ATOM
      1 O01          0.0000     0.0000     0.0000 o          1 5KO      -0.512100
      2 C02          1.2070     0.0000     0.0000 c          1 5KO       0.573900
      3 C03          1.9610     0.0000     1.3050 c3         1 5KO      -0.204400
      4 C04          2.9330    -1.1820     1.3330 c3         1 5KO       0.151100
      5 O05          2.1950    -2.4050     1.3230 oh         1 5KO      -0.600800
      6 C06          3.7850    -1.1100     2.6020 c3         1 5KO      -0.116100
      7 H2           2.5150     0.9260     1.4020 hc         1 5KO       0.077700
      8 H3           1.2600    -0.0890     2.1260 hc         1 5KO       0.077700
      9 H4           3.5770    -1.1410     0.4630 h1         1 5KO       0.027700
     10 H5           2.6660    -3.0520     0.8250 ho         1 5KO       0.404000
     11 H6           4.5220    -1.9040     2.5880 hc         1 5KO       0.044367
     12 H7           4.2870    -0.1520     2.6470 hc         1 5KO       0.044367
     13 H8           3.1480    -1.2250     3.4720 hc         1 5KO       0.044367
     14 H1           1.7490     0.0420    -0.9370 h4         1 5KO      -0.011800
@<TRIPOS>BOND
     1     5     4 1
     2     4     6 1
     3     4     3 1
     4     3     2 1
     5     2     1 2
     6     3     7 1
     7     3     8 1
     8     4     9 1
     9     5    10 1
    10     6    11 1
    11     6    12 1
    12     6    13 1
    13     2    14 1
@<TRIPOS>SUBSTRUCTURE
     1 5KO         1 TEMP              0 ****  ****    0 ROOT
