@<TRIPOS>MOLECULE
molecule
   56    59     1     0     0
SMALL
bcc


@<TRIPOS>ATOM
      1 CBE          0.0000     0.0000     0.0000 c3         1 5KP      -0.054800
      2 CAZ          1.5080     0.0000     0.0000 ca         1 5KP      -0.116300
      3 CBA          2.2000     0.0000     1.1960 ca         1 5KP       0.046400
      4 Cl1          1.3320     0.0010     2.6990 cl         1 5KP      -0.110400
      5 CBB          3.5830     0.0010     1.1960 ca         1 5KP      -0.139000
      6 CBC          4.2770     0.0000    -0.0000 ca         1 5KP      -0.106000
      7 CBD          3.5910    -0.0000    -1.1980 ca         1 5KP      -0.134000
      8 CAY          2.2030    -0.0070    -1.2020 ca         1 5KP       0.068600
      9 NAW          1.5050    -0.0140    -2.4150 ns         1 5KP      -0.473100
     10 CAV          2.0890    -0.5040    -3.5260 c          1 5KP       0.660100
     11 OAX          3.1790    -1.0320    -3.4560 o          1 5KP      -0.588100
     12 CAU          1.3910    -0.3950    -4.8570 c3         1 5KP      -0.156400
     13 CAT          2.2630    -1.0240    -5.9450 c3         1 5KP      -0.090400
     14 CAS          1.5530    -0.9140    -7.2960 c3         1 5KP       0.132000
     15 NAA          2.3890    -1.5160    -8.3370 n          1 5KP      -0.217800
     16 CAF          2.2380    -2.8290    -8.6100 c          1 5KP       0.621000
     17 OAJ          1.4220    -3.4990    -8.0010 o          1 5KP      -0.617500
     18 NAB          3.3030    -0.7080    -9.0100 nc         1 5KP      -0.466300
     19 CAC          4.0890    -1.1450    -9.9480 cd         1 5KP       0.449900
     20 CAL          5.0510    -0.2050   -10.6270 c3         1 5KP      -0.110400
     21 CAD          4.0360    -2.5510   -10.3420 cd         1 5KP      -0.360200
     22 CAG          4.6680    -3.3690   -11.2440 cc         1 5KP      -0.082600
     23 CAK          5.7480    -2.9690   -12.2150 c3         1 5KP      -0.027800
     24 CAE          3.0750    -3.4320    -9.6530 cd         1 5KP       0.279800
     25 NAI          3.2270    -4.6200   -10.1840 nc         1 5KP      -0.446800
     26 NAH          4.1350    -4.6000   -11.0950 na         1 5KP       0.234300
     27 CAM          4.5220    -5.7190   -11.8440 ca         1 5KP       0.002800
     28 CAN          5.8500    -5.8810   -12.2180 ca         1 5KP      -0.121500
     29 CAO          6.2290    -6.9890   -12.9510 ca         1 5KP      -0.116000
     30 CAP          5.2870    -7.9360   -13.3130 ca         1 5KP      -0.121000
     31 CAQ          3.9640    -7.7770   -12.9430 ca         1 5KP      -0.116000
     32 CAR          3.5790    -6.6710   -12.2090 ca         1 5KP      -0.121500
     33 H1          -0.3610    -0.0190     1.0210 hc         1 5KP       0.049033
     34 H2          -0.3610     0.8940    -0.4940 hc         1 5KP       0.049033
     35 H3          -0.3610    -0.8750    -0.5270 hc         1 5KP       0.049033
     36 H4           4.1240     0.0010     2.1350 ha         1 5KP       0.142000
     37 H5           5.3610     0.0030     0.0030 ha         1 5KP       0.140000
     38 H6           4.1350    -0.0030    -2.1350 ha         1 5KP       0.175000
     39 H7           0.5760     0.3550    -2.4600 hn         1 5KP       0.326500
     40 H8           0.4420    -0.9150    -4.8100 hc         1 5KP       0.063200
     41 H9           1.2200     0.6490    -5.0900 hc         1 5KP       0.063200
     42 H10          2.4350    -2.0680    -5.7110 hc         1 5KP       0.073200
     43 H11          3.2120    -0.5040    -5.9920 hc         1 5KP       0.073200
     44 H12          1.3800     0.1300    -7.5290 h1         1 5KP       0.067700
     45 H13          0.6050    -1.4350    -7.2490 h1         1 5KP       0.067700
     46 H14          4.9900     0.7720   -10.1620 hc         1 5KP       0.055367
     47 H15          4.7950    -0.1210   -11.6760 hc         1 5KP       0.055367
     48 H16          6.0590    -0.5890   -10.5310 hc         1 5KP       0.055367
     49 H17          5.6760    -1.9080   -12.4190 hc         1 5KP       0.057033
     50 H18          6.7190    -3.1900   -11.7870 hc         1 5KP       0.057033
     51 H19          5.6270    -3.5230   -13.1380 hc         1 5KP       0.057033
     52 H20          6.5870    -5.1400   -11.9340 ha         1 5KP       0.152000
     53 H21          7.2640    -7.1160   -13.2430 ha         1 5KP       0.140500
     54 H22          5.5860    -8.8030   -13.8890 ha         1 5KP       0.137000
     55 H23          3.2290    -8.5200   -13.2280 ha         1 5KP       0.140500
     56 H24          2.5430    -6.5470   -11.9190 ha         1 5KP       0.152000
@<TRIPOS>BOND
     1    29    30 ar
     2    29    28 ar
     3    30    31 ar
     4    28    27 ar
     5    31    32 ar
     6    23    22 1
     7    27    32 ar
     8    27    26 1
     9    26    22 1
    10    26    25 1
    11    22    21 2
    12    25    24 2
    13    21    19 1
    14    21    24 1
    15    20    19 1
    16    19    18 2
    17    24    16 1
    18    16    15 1
    19    16    17 2
    20    18    15 1
    21    15    14 1
    22    14    13 1
    23    13    12 1
    24    11    10 2
    25     1     2 1
    26    12    10 1
    27    10     9 1
    28     4     3 1
    29     2     3 ar
    30     2     8 ar
    31     9     8 1
    32     3     5 ar
    33     8     7 ar
    34     5     6 ar
    35     7     6 ar
    36     1    33 1
    37     1    34 1
    38     1    35 1
    39     5    36 1
    40     6    37 1
    41     7    38 1
    42     9    39 1
    43    12    40 1
    44    12    41 1
    45    13    42 1
    46    13    43 1
    47    14    44 1
    48    14    45 1
    49    20    46 1
    50    20    47 1
    51    20    48 1
    52    23    49 1
    53    23    50 1
    54    23    51 1
    55    28    52 1
    56    29    53 1
    57    30    54 1
    58    31    55 1
    59    32    56 1
@<TRIPOS>SUBSTRUCTURE
     1 5KP         1 TEMP              0 ****  ****    0 ROOT
