@<TRIPOS>MOLECULE
5KP
   56    59     1     0     0
SMALL
bcc


@<TRIPOS>ATOM
      1 CBE          0.0000     0.0000     0.0000 c3         1 5KP       0.049200
      2 CAZ          1.5080     0.0000     0.0000 ca         1 5KP      -0.123300
      3 CBA          2.2000     0.0000     1.1960 ca         1 5KP      -0.013600
      4 Cl1          1.3320     0.0010     2.6990 cl         1 5KP      -0.027400
      5 CBB          3.5830     0.0010     1.1960 ca         1 5KP      -0.115000
      6 CBC          4.2770     0.0000    -0.0000 ca         1 5KP      -0.074000
      7 CBD          3.5910    -0.0000    -1.1980 ca         1 5KP      -0.116000
      8 CAY          2.2030    -0.0070    -1.2020 ca         1 5KP      -0.074400
      9 NAW          1.5050    -0.0140    -2.4150 ns         1 5KP      -0.032100
     10 CAV          2.0890    -0.5040    -3.5260 c          1 5KP       0.561100
     11 OAX          3.1790    -1.0320    -3.4560 o          1 5KP      -0.628100
     12 CAU          1.3910    -0.3950    -4.8570 c3         1 5KP      -0.093400
     13 CAT          2.2630    -1.0240    -5.9450 c3         1 5KP      -0.038400
     14 CAS          1.5530    -0.9140    -7.2960 c3         1 5KP       0.056000
     15 NAA          2.3890    -1.5160    -8.3370 n          1 5KP       0.128200
     16 CAF          2.2380    -2.8290    -8.6100 c          1 5KP       0.540000
     17 OAJ          1.4220    -3.4990    -8.0010 o          1 5KP      -0.663500
     18 NAB          3.3030    -0.7080    -9.0100 nc         1 5KP      -0.542300
     19 CAC          4.0890    -1.1450    -9.9480 cd         1 5KP       0.456900
     20 CAL          5.0510    -0.2050   -10.6270 c3         1 5KP      -0.018400
     21 CAD          4.0360    -2.5510   -10.3420 cd         1 5KP      -0.357200
     22 CAG          4.6680    -3.3690   -11.2440 cc         1 5KP      -0.286600
     23 CAK          5.7480    -2.9690   -12.2150 c3         1 5KP       0.086200
     24 CAE          3.0750    -3.4320    -9.6530 cd         1 5KP       0.270800
     25 NAI          3.2270    -4.6200   -10.1840 nc         1 5KP      -0.574800
     26 NAH          4.1350    -4.6000   -11.0950 na         1 5KP       0.751300
     27 CAM          4.5220    -5.7190   -11.8440 ca         1 5KP      -0.196200
     28 CAN          5.8500    -5.8810   -12.2180 ca         1 5KP      -0.083500
     29 CAO          6.2290    -6.9890   -12.9510 ca         1 5KP      -0.090500
     30 CAP          5.2870    -7.9360   -13.3130 ca         1 5KP      -0.081000
     31 CAQ          3.9640    -7.7770   -12.9430 ca         1 5KP      -0.090500
     32 CAR          3.5790    -6.6710   -12.2090 ca         1 5KP      -0.083500
     33 H1          -0.3610    -0.0190     1.0210 hc         1 5KP       0.014367
     34 H2          -0.3610     0.8940    -0.4940 hc         1 5KP       0.014367
     35 H3          -0.3610    -0.8750    -0.5270 hc         1 5KP       0.014367
     36 H4           4.1240     0.0010     2.1350 ha         1 5KP       0.114000
     37 H5           5.3610     0.0030     0.0030 ha         1 5KP       0.107000
     38 H6           4.1350    -0.0030    -2.1350 ha         1 5KP       0.157000
     39 H7           0.5760     0.3550    -2.4600 hn         1 5KP       0.172500
     40 H8           0.4420    -0.9150    -4.8100 hc         1 5KP       0.029200
     41 H9           1.2200     0.6490    -5.0900 hc         1 5KP       0.029200
     42 H10          2.4350    -2.0680    -5.7110 hc         1 5KP       0.041700
     43 H11          3.2120    -0.5040    -5.9920 hc         1 5KP       0.041700
     44 H12          1.3800     0.1300    -7.5290 h1         1 5KP       0.037200
     45 H13          0.6050    -1.4350    -7.2490 h1         1 5KP       0.037200
     46 H14          4.9900     0.7720   -10.1620 hc         1 5KP       0.016700
     47 H15          4.7950    -0.1210   -11.6760 hc         1 5KP       0.016700
     48 H16          6.0590    -0.5890   -10.5310 hc         1 5KP       0.016700
     49 H17          5.6760    -1.9080   -12.4190 hc         1 5KP       0.019367
     50 H18          6.7190    -3.1900   -11.7870 hc         1 5KP       0.019367
     51 H19          5.6270    -3.5230   -13.1380 hc         1 5KP       0.019367
     52 H20          6.5870    -5.1400   -11.9340 ha         1 5KP       0.127500
     53 H21          7.2640    -7.1160   -13.2430 ha         1 5KP       0.110500
     54 H22          5.5860    -8.8030   -13.8890 ha         1 5KP       0.107000
     55 H23          3.2290    -8.5200   -13.2280 ha         1 5KP       0.110500
     56 H24          2.5430    -6.5470   -11.9190 ha         1 5KP       0.127500
@<TRIPOS>BOND
     1     1     2 1   
     2     1    33 1   
     3     1    34 1   
     4     1    35 1   
     5     2     3 ar  
     6     2     8 ar  
     7     3     4 1   
     8     3     5 ar  
     9     5     6 ar  
    10     5    36 1   
    11     6     7 ar  
    12     6    37 1   
    13     7     8 ar  
    14     7    38 1   
    15     8     9 1   
    16     9    10 1   
    17     9    39 1   
    18    10    11 2   
    19    10    12 1   
    20    12    13 1   
    21    12    40 1   
    22    12    41 1   
    23    13    14 1   
    24    13    42 1   
    25    13    43 1   
    26    14    15 1   
    27    14    44 1   
    28    14    45 1   
    29    15    16 1   
    30    15    18 1   
    31    16    17 2   
    32    16    24 1   
    33    18    19 2   
    34    19    20 1   
    35    19    21 1   
    36    20    46 1   
    37    20    47 1   
    38    20    48 1   
    39    21    22 2   
    40    21    24 1   
    41    22    23 1   
    42    22    26 1   
    43    23    49 1   
    44    23    50 1   
    45    23    51 1   
    46    24    25 2   
    47    25    26 1   
    48    26    27 1   
    49    27    28 ar  
    50    27    32 ar  
    51    28    29 ar  
    52    28    52 1   
    53    29    30 ar  
    54    29    53 1   
    55    30    31 ar  
    56    30    54 1   
    57    31    32 ar  
    58    31    55 1   
    59    32    56 1   
@<TRIPOS>SUBSTRUCTURE
     1 5KP         1 TEMP              0 ****  ****    0 ROOT
