@<TRIPOS>MOLECULE
molecule
   45    45     1     0     0
SMALL
bcc


@<TRIPOS>ATOM
      1 CAW          0.0000     0.0000     0.0000 c3         1 5KQ      -0.170100
      2 CAV          1.5070     0.0000     0.0000 c          1 5KQ       0.651100
      3 OAX          2.1140     0.0000     1.0500 o          1 5KQ      -0.614100
      4 NAU          2.1810     0.0010    -1.1680 ns         1 5KQ      -0.554900
      5 CAT          3.6460    -0.0000    -1.1680 c3         1 5KQ       0.109700
      6 CAR          4.1580     1.4390    -1.0500 c3         1 5KQ       0.111100
      7 OAS          3.7470     1.9910     0.2030 oh         1 5KQ      -0.606800
      8 CAQ          5.6880     1.4330    -1.1300 c3         1 5KQ      -0.151400
      9 CAL          6.1200     0.7680    -2.4390 c3         1 5KQ       0.262600
     10 CAN          5.6050     1.5720    -3.6050 c          1 5KQ       0.853600
     11 OAP          4.2940     1.8480    -3.7040 o          1 5KQ      -0.830300
     12 OAO          6.3710     1.9690    -4.4510 o          1 5KQ      -0.830300
     13 OAM          7.5470     0.7090    -2.4950 oh         1 5KQ      -0.598800
     14 OAK          5.5850    -0.5560    -2.4990 os         1 5KQ      -0.388600
     15 CAJ          4.1570    -0.6090    -2.4760 c3         1 5KQ       0.137100
     16 CAH          3.6990    -2.0650    -2.5730 c3         1 5KQ       0.155100
     17 OAI          2.2720    -2.1200    -2.5490 oh         1 5KQ      -0.605800
     18 CAF          4.2110    -2.6740    -3.8810 c3         1 5KQ       0.111100
     19 OAG          5.6380    -2.6210    -3.9050 oh         1 5KQ      -0.565800
     20 CAE          3.7530    -4.1310    -3.9780 c3         1 5KQ       0.079000
     21 NAD          4.2430    -4.7150    -5.2300 ns         1 5KQ      -0.576900
     22 CAB          3.9600    -5.9970    -5.5310 c          1 5KQ       0.655100
     23 OAC          3.3000    -6.6690    -4.7670 o          1 5KQ      -0.623100
     24 CAA          4.4630    -6.5970    -6.8190 c3         1 5KQ      -0.173100
     25 H1          -0.3610    -1.0060    -0.1790 hc         1 5KQ       0.048033
     26 H2          -0.3610     0.6580    -0.7810 hc         1 5KQ       0.048033
     27 H3          -0.3610     0.3480     0.9600 hc         1 5KQ       0.048033
     28 H4           1.6810     0.0440    -2.0330 hn         1 5KQ       0.324500
     29 H5           4.0130    -0.5830    -0.3320 h1         1 5KQ       0.074700
     30 H6           3.7570     2.0330    -1.8620 h1         1 5KQ       0.117700
     31 H7           3.8280     2.9300     0.1750 ho         1 5KQ       0.384000
     32 H8           6.0900     0.8770    -0.2920 hc         1 5KQ       0.043700
     33 H9           6.0540     2.4530    -1.1050 hc         1 5KQ       0.043700
     34 H11          7.9010     1.5800    -2.4170 ho         1 5KQ       0.415000
     35 H12          3.7620    -0.0460    -3.3130 h1         1 5KQ       0.119700
     36 H13          4.0960    -2.6250    -1.7350 h1         1 5KQ       0.050700
     37 H14          1.9950    -2.9060    -2.1090 ho         1 5KQ       0.400000
     38 H15          3.8140    -2.1140    -4.7190 h1         1 5KQ       0.052700
     39 H16          5.9320    -2.4470    -4.7840 ho         1 5KQ       0.400000
     40 H17          4.1490    -4.6910    -3.1400 h1         1 5KQ       0.055700
     41 H18          2.6710    -4.1720    -3.9600 h1         1 5KQ       0.055700
     42 H19          4.7670    -4.1540    -5.8730 hn         1 5KQ       0.312500
     43 H20          5.5460    -6.5830    -6.8250 hc         1 5KQ       0.056033
     44 H21          4.0900    -6.0200    -7.6570 hc         1 5KQ       0.056033
     45 H22          4.1150    -7.6200    -6.9020 hc         1 5KQ       0.056033
@<TRIPOS>BOND
     1    12    10 1   
     2     7     6 1   
     3    10    11 1   
     4    10     9 1   
     5     6     8 1   
     6     6     5 1   
     7     8     9 1   
     8     9    13 1   
     9     9    14 1   
    10     4     5 1   
    11     4     2 1   
    12     5    15 1   
    13     1     2 1   
    14    15    14 1   
    15    15    16 1   
    16     2     3 2   
    17    19    18 1   
    18    18    16 1   
    19    18    20 1   
    20    16    17 1   
    21    21    20 1   
    22    21    22 1   
    23    24    22 1   
    24    22    23 2   
    25     1    25 1   
    26     1    26 1   
    27     1    27 1   
    28     4    28 1   
    29     5    29 1   
    30     6    30 1   
    31     7    31 1   
    32     8    32 1   
    33     8    33 1   
    34    13    34 1   
    35    15    35 1   
    36    16    36 1   
    37    17    37 1   
    38    18    38 1   
    39    19    39 1   
    40    20    40 1   
    41    20    41 1   
    42    21    42 1   
    43    24    43 1   
    44    24    44 1   
    45    24    45 1   
@<TRIPOS>SUBSTRUCTURE
     1 5KQ         1 TEMP              0 ****  ****    0 ROOT
