@<TRIPOS>MOLECULE
5KQ
   45    45     1     0     0
SMALL
bcc


@<TRIPOS>ATOM
      1 CAW          0.0000     0.0000     0.0000 c3         1 5KQ      -0.069100
      2 CAV          1.5070     0.0000     0.0000 c          1 5KQ       0.557100
      3 OAX          2.1140     0.0000     1.0500 o          1 5KQ      -0.658100
      4 NAU          2.1810     0.0010    -1.1680 ns         1 5KQ      -0.152900
      5 CAT          3.6460    -0.0000    -1.1680 c3         1 5KQ      -0.001300
      6 CAR          4.1580     1.4390    -1.0500 c3         1 5KQ       0.122100
      7 OAS          3.7470     1.9910     0.2030 oh         1 5KQ      -0.583800
      8 CAQ          5.6880     1.4330    -1.1300 c3         1 5KQ      -0.100400
      9 CAL          6.1200     0.7680    -2.4390 c3         1 5KQ       0.284600
     10 CAN          5.6050     1.5720    -3.6050 c          1 5KQ       0.936600
     11 OAP          4.2940     1.8480    -3.7040 o          1 5KQ      -0.874800
     12 OAO          6.3710     1.9690    -4.4510 o          1 5KQ      -0.874800
     13 OAM          7.5470     0.7090    -2.4950 oh         1 5KQ      -0.588800
     14 OAK          5.5850    -0.5560    -2.4990 os         1 5KQ      -0.370600
     15 CAJ          4.1570    -0.6090    -2.4760 c3         1 5KQ       0.132100
     16 CAH          3.6990    -2.0650    -2.5730 c3         1 5KQ       0.185100
     17 OAI          2.2720    -2.1200    -2.5490 oh         1 5KQ      -0.590800
     18 CAF          4.2110    -2.6740    -3.8810 c3         1 5KQ       0.149100
     19 OAG          5.6380    -2.6210    -3.9050 oh         1 5KQ      -0.547800
     20 CAE          3.7530    -4.1310    -3.9780 c3         1 5KQ       0.008000
     21 NAD          4.2430    -4.7150    -5.2300 ns         1 5KQ      -0.179900
     22 CAB          3.9600    -5.9970    -5.5310 c          1 5KQ       0.566100
     23 OAC          3.3000    -6.6690    -4.7670 o          1 5KQ      -0.665100
     24 CAA          4.4630    -6.5970    -6.8190 c3         1 5KQ      -0.069100
     25 H1          -0.3610    -1.0060    -0.1790 hc         1 5KQ       0.011367
     26 H2          -0.3610     0.6580    -0.7810 hc         1 5KQ       0.011367
     27 H3          -0.3610     0.3480     0.9600 hc         1 5KQ       0.011367
     28 H4           1.6810     0.0440    -2.0330 hn         1 5KQ       0.185500
     29 H5           4.0130    -0.5830    -0.3320 h1         1 5KQ       0.053700
     30 H6           3.7570     2.0330    -1.8620 h1         1 5KQ       0.100700
     31 H7           3.8280     2.9300     0.1750 ho         1 5KQ       0.371000
     32 H8           6.0900     0.8770    -0.2920 hc         1 5KQ       0.017200
     33 H9           6.0540     2.4530    -1.1050 hc         1 5KQ       0.017200
     34 H11          7.9010     1.5800    -2.4170 ho         1 5KQ       0.401000
     35 H12          3.7620    -0.0460    -3.3130 h1         1 5KQ       0.103700
     36 H13          4.0960    -2.6250    -1.7350 h1         1 5KQ       0.016700
     37 H14          1.9950    -2.9060    -2.1090 ho         1 5KQ       0.388000
     38 H15          3.8140    -2.1140    -4.7190 h1         1 5KQ       0.021700
     39 H16          5.9320    -2.4470    -4.7840 ho         1 5KQ       0.387000
     40 H17          4.1490    -4.6910    -3.1400 h1         1 5KQ       0.032200
     41 H18          2.6710    -4.1720    -3.9600 h1         1 5KQ       0.032200
     42 H19          4.7670    -4.1540    -5.8730 hn         1 5KQ       0.171500
     43 H20          5.5460    -6.5830    -6.8250 hc         1 5KQ       0.018367
     44 H21          4.0900    -6.0200    -7.6570 hc         1 5KQ       0.018367
     45 H22          4.1150    -7.6200    -6.9020 hc         1 5KQ       0.018367
@<TRIPOS>BOND
     1     1     2 1   
     2     1    25 1   
     3     1    26 1   
     4     1    27 1   
     5     2     3 2   
     6     2     4 1   
     7     4     5 1   
     8     4    28 1   
     9     5     6 1   
    10     5    15 1   
    11     5    29 1   
    12     6     7 1   
    13     6     8 1   
    14     6    30 1   
    15     7    31 1   
    16     8     9 1   
    17     8    32 1   
    18     8    33 1   
    19     9    10 1   
    20     9    13 1   
    21     9    14 1   
    22    10    11 1   
    23    10    12 1   
    24    13    34 1   
    25    14    15 1   
    26    15    16 1   
    27    15    35 1   
    28    16    17 1   
    29    16    18 1   
    30    16    36 1   
    31    17    37 1   
    32    18    19 1   
    33    18    20 1   
    34    18    38 1   
    35    19    39 1   
    36    20    21 1   
    37    20    40 1   
    38    20    41 1   
    39    21    22 1   
    40    21    42 1   
    41    22    23 2   
    42    22    24 1   
    43    24    43 1   
    44    24    44 1   
    45    24    45 1   
@<TRIPOS>SUBSTRUCTURE
     1 5KQ         1 TEMP              0 ****  ****    0 ROOT
