@<TRIPOS>MOLECULE
5KR
   46    48     1     0     0
SMALL
bcc


@<TRIPOS>ATOM
      1 C10          0.0000     0.0000     0.0000 ca         1 5KR      -0.174600
      2 C13          1.3920     0.0110     2.3940 ca         1 5KR       0.020700
      3 C17          0.0080     0.0120     2.4020 ca         1 5KR      -0.144000
      4 C20          3.5830    -5.0480    -0.0040 ca         1 5KR       0.013100
      5 C22         -4.7330    -0.8010    -3.7270 ca         1 5KR      -0.050000
      6 C24          5.0820    -3.5970     1.1720 ca         1 5KR      -0.149000
      7 C26          2.5850    -4.0940     0.0820 ca         1 5KR      -0.048000
      8 C28          2.1500     0.0240     3.6970 c3         1 5KR      -0.002800
      9 C02          2.0830     0.0000     1.1960 ca         1 5KR      -0.184500
     10 C03         -4.0420    -0.7200    -2.5160 ca         1 5KR      -0.134600
     11 C04         -0.7430    -0.0000    -1.2780 c          1 5KR       0.562700
     12 N05         -2.0900     0.0000    -1.2730 ns         1 5KR       0.011900
     13 C07         -2.7900    -0.0860    -2.4740 ca         1 5KR      -0.078400
     14 C08          1.3960     0.0000     0.0000 ca         1 5KR       0.056000
     15 O14         -0.1390    -0.0000    -2.3320 o          1 5KR      -0.677100
     16 O15         -5.8710    -1.8060    -1.3110 o          1 5KR      -0.890300
     17 C16         -0.6910     0.0070     1.2130 ca         1 5KR      -0.012000
     18 C18          4.0820    -2.6370     1.2600 ca         1 5KR       0.093600
     19 O19         -3.9760    -1.3170    -0.2620 o          1 5KR      -0.890300
     20 C23          2.8310    -2.8900     0.7120 ca         1 5KR      -0.149000
     21 C25          4.8310    -4.7990     0.5400 ca         1 5KR      -0.048000
     22 C27         -2.2540     0.4540    -3.6340 ca         1 5KR      -0.147000
     23 C29         -4.1850    -0.2580    -4.8690 ca         1 5KR      -0.155000
     24 C30         -2.9490     0.3670    -4.8230 ca         1 5KR      -0.110000
     25 H1          -0.5270     0.0180     3.3440 ha         1 5KR       0.114000
     26 H2          -5.7000    -1.2880    -3.7680 ha         1 5KR       0.127000
     27 H3           6.0590    -3.4030     1.5980 ha         1 5KR       0.125000
     28 H4           1.6090    -4.2910    -0.3450 ha         1 5KR       0.118000
     29 H5           2.6420    -0.9310     3.8380 hc         1 5KR       0.028367
     30 H6           2.8920     0.8130     3.6760 hc         1 5KR       0.028367
     31 H7           1.4600     0.1990     4.5140 hc         1 5KR       0.028367
     32 H8          -2.5870     0.1250    -0.4130 hn         1 5KR       0.218500
     33 H9           4.9170    -1.3970     2.7110 hn         1 5KR       0.340800
     34 H10          1.9390    -0.0090    -0.9380 ha         1 5KR       0.153000
     35 H12         -1.7750     0.0070     1.2200 ha         1 5KR       0.139000
     36 H13          2.0490    -2.1430     0.7790 ha         1 5KR       0.125000
     37 H14          5.6110    -5.5480     0.4720 ha         1 5KR       0.118000
     38 H15         -1.2880     0.9450    -3.6070 ha         1 5KR       0.141000
     39 H16         -4.7230    -0.3210    -5.8080 ha         1 5KR       0.085000
     40 H17         -2.5270     0.7900    -5.7260 ha         1 5KR       0.084000
     41 S01          3.8450    -0.0010     1.1970 sy         1 5KR       1.040200
     42 C09         -4.6220    -1.2980    -1.2910 c          1 5KR       0.989200
     43 N06          4.3340    -1.4200     1.8980 nu         1 5KR      -0.402500
     44 O11          4.2480    -0.0670    -0.1650 o          1 5KR      -0.585800
     45 O12          4.2470     1.0400     2.0770 o          1 5KR      -0.585800
     46 Br1          3.2440    -6.6930    -0.8740 br         1 5KR      -0.142100
@<TRIPOS>BOND
     1     1    11 1   
     2     1    14 ar  
     3     1    17 ar  
     4     2     3 ar  
     5     2     8 1   
     6     2     9 ar  
     7     3    17 ar  
     8     3    25 1   
     9     4     7 ar  
    10     4    21 ar  
    11     4    46 1   
    12     5    10 ar  
    13     5    23 ar  
    14     5    26 1   
    15     6    18 ar  
    16     6    21 ar  
    17     6    27 1   
    18     7    20 ar  
    19     7    28 1   
    20     8    29 1   
    21     8    30 1   
    22     8    31 1   
    23     9    14 ar  
    24     9    41 1   
    25    10    13 ar  
    26    10    42 1   
    27    11    12 1   
    28    11    15 2   
    29    12    13 1   
    30    12    32 1   
    31    13    22 ar  
    32    14    34 1   
    33    16    42 1   
    34    17    35 1   
    35    18    20 ar  
    36    18    43 1   
    37    19    42 1   
    38    20    36 1   
    39    21    37 1   
    40    22    24 ar  
    41    22    38 1   
    42    23    24 ar  
    43    23    39 1   
    44    24    40 1   
    45    33    43 1   
    46    41    43 1   
    47    41    44 2   
    48    41    45 2   
@<TRIPOS>SUBSTRUCTURE
     1 5KR         1 TEMP              0 ****  ****    0 ROOT
