@<TRIPOS>MOLECULE
molecule
   65    65     1     0     0
SMALL
bcc


@<TRIPOS>ATOM
      1 CAI          0.0000     0.0000     0.0000 c3         1 5KU       0.127700
      2 CAK          2.0100     0.0000     1.3060 c3         1 5KU       0.141400
      3 CAL          3.5350    -0.0010     1.1860 c3         1 5KU       0.139400
      4 CAN          5.3820     1.3230     0.4200 c3         1 5KU       0.118400
      5 CAO          5.7260     2.6630    -0.2340 c3         1 5KU       0.132000
      6 CAT          4.4590     8.3440     1.2760 c3         1 5KU       0.052100
      7 CAU          3.0430     7.8490     0.9500 c3         1 5KU       0.159700
      8 CAV          2.0390     8.8600     1.5150 c3         1 5KU      -0.158300
      9 CAW          2.4170     9.2030     2.9290 c2         1 5KU      -0.422200
     10 CAX          3.6220     8.9580     3.4200 ce         1 5KU       0.178900
     11 CAZ          5.4910     7.3920     0.6680 c3         1 5KU       0.208100
     12 OAJ          1.4300     0.0000     0.0000 os         1 5KU      -0.421600
     13 OAM          3.9660     1.2210     0.5790 os         1 5KU      -0.435600
     14 OAY          4.6090     8.3730     2.6970 os         1 5KU      -0.218900
     15 CBA          6.8950     7.8190     1.0990 c3         1 5KU       0.089100
     16 CBB          7.9160     6.7970     0.5940 c3         1 5KU       0.086400
     17 CBJ          5.5710     5.0350     0.3000 c          1 5KU       0.741100
     18 CBP          1.6880     4.3440     1.6810 c3         1 5KU      -0.166100
     19 CBQ          3.9050     9.3380     4.8160 c          1 5KU       0.858800
     20 NBD          2.0570    10.0750     0.6950 n2         1 5KU      -0.408900
     21 NBG          0.9800    11.5820    -0.7010 nz         1 5KU      -0.740600
     22 NBH         -0.2560     9.9830     0.5580 nz         1 5KU      -0.740600
     23 NBI          5.3580     3.7560     0.6680 ns         1 5KU      -0.556900
     24 NBM          2.8240     6.5380     1.5670 ns         1 5KU      -0.531900
     25 OBC          9.2360     7.2540     0.8960 oh         1 5KU      -0.577800
     26 OBE          6.9550     7.8890     2.5240 oh         1 5KU      -0.571800
     27 OBK          5.2330     6.0400     1.1300 os         1 5KU      -0.406900
     28 OBL          6.0680     5.2800    -0.7810 o          1 5KU      -0.614000
     29 OBN          1.2760     6.0140     0.0660 o          1 5KU      -0.639100
     30 OBR          3.0400     9.8630     5.4890 o          1 5KU      -0.721800
     31 OBS          5.1210     9.1010     5.3460 o          1 5KU      -0.721800
     32 H1          -0.3610     0.3530    -0.9580 h1         1 5KU       0.031367
     33 H2          -0.3610     0.6530     0.7850 h1         1 5KU       0.031367
     34 H3          -0.3610    -1.0070     0.1730 h1         1 5KU       0.031367
     35 H4           1.6910     0.8850     1.8430 h1         1 5KU       0.032700
     36 H5           1.6900    -0.8840     1.8430 h1         1 5KU       0.032700
     37 H6           3.8490    -0.8380     0.5740 h1         1 5KU       0.041700
     38 H7           3.9750    -0.0890     2.1720 h1         1 5KU       0.041700
     39 H8           5.7340     0.5140    -0.2080 h1         1 5KU       0.043700
     40 H9           5.8600     1.2620     1.3900 h1         1 5KU       0.043700
     41 H10          5.1790     2.7620    -1.1640 h1         1 5KU       0.070200
     42 H11          6.7900     2.7030    -0.4350 h1         1 5KU       0.070200
     43 H12          4.5960     9.3410     0.8750 h1         1 5KU       0.073700
     44 H13          2.9210     7.7770    -0.1240 h1         1 5KU       0.095700
     45 H14          3.0460     9.1730     1.2660 h1         1 5KU       0.221700
     46 H15          1.8080     8.6550     3.6380 ha         1 5KU       0.191000
     47 H18          5.3200     7.7220    -0.3490 h1         1 5KU       0.070700
     48 H19          7.1210     8.7920     0.6790 h1         1 5KU       0.036700
     49 H20          7.4130     6.9080    -0.3580 h1         1 5KU       0.069200
     50 H21          7.5170     6.0000     1.2110 h1         1 5KU       0.069200
     51 H22          2.3710     4.2170     2.5120 hc         1 5KU       0.079033
     52 H23          0.6730     4.1730     2.0190 hc         1 5KU       0.079033
     53 H24          1.9340     3.6330     0.9010 hc         1 5KU       0.079033
     54 H26          0.5410    11.3030    -1.5560 hn         1 5KU       0.482967
     55 H27         -1.0040    10.5520     0.2140 hn         1 5KU       0.482967
     56 H28         -0.2850     9.9640     1.5580 hn         1 5KU       0.482967
     57 H29          4.9860     3.5520     1.5750 hn         1 5KU       0.331500
     58 H30          3.3080     6.2960     2.4090 hn         1 5KU       0.368500
     59 H31          9.8600     6.7830     0.3690 ho         1 5KU       0.419000
     60 H32          7.7570     8.3110     2.7850 ho         1 5KU       0.432000
     61 H16          0.4880    12.3620    -0.3130 hn         1 5KU       0.482967
     62 CBF          0.9470    10.5380     0.1940 c2         1 5KU       0.362100
     63 CBO          1.9140     5.6920     1.0460 c          1 5KU       0.676100
     64 HBG3         1.9290    11.8440    -0.8840 hn         1 5KU       0.482967
     65 HBH3        -0.3300     9.0640     0.1680 hn         1 5KU       0.482967
@<TRIPOS>BOND
     1    30    19 1
     2    26    15 1
     3    12     2 1
     4    12     1 1
     5     2     3 1
     6    16    25 1
     7    16    15 1
     8    19    31 1
     9    19    10 1
    10    15    11 1
    11    10    14 1
    12    10     9 2
    13    14     6 1
    14     3    13 1
    15     6    11 1
    16     6     7 1
    17    11    27 1
    18    27    17 1
    19    13     4 1
    20     9     8 1
    21     7     8 1
    22     7    24 1
    23    17    23 1
    24    17    28 2
    25    23     5 1
    26     8    20 1
    27     4     5 1
    28    24    63 1
    29    20    62 2
    30    63    29 2
    31    63    18 1
    32    21    62 1
    33    62    22 1
    34     1    32 1
    35     1    33 1
    36     1    34 1
    37     2    35 1
    38     2    36 1
    39     3    37 1
    40     3    38 1
    41     4    39 1
    42     4    40 1
    43     5    41 1
    44     5    42 1
    45     6    43 1
    46     7    44 1
    47     8    45 1
    48     9    46 1
    49    11    47 1
    50    15    48 1
    51    16    49 1
    52    16    50 1
    53    18    51 1
    54    18    52 1
    55    18    53 1
    56    21    54 1
    57    22    55 1
    58    22    56 1
    59    23    57 1
    60    24    58 1
    61    25    59 1
    62    26    60 1
    63    21    61 1
    64    64    21 1
    65    65    22 1
@<TRIPOS>SUBSTRUCTURE
     1 5KU         1 TEMP              0 ****  ****    0 ROOT
