@<TRIPOS>MOLECULE
5KU
   65    65     1     0     0
SMALL
bcc


@<TRIPOS>ATOM
      1 CAI          0.0000     0.0000     0.0000 c3         1 5KU       0.253700
      2 CAK          2.0100     0.0000     1.3060 c3         1 5KU       0.209400
      3 CAL          3.5350    -0.0010     1.1860 c3         1 5KU       0.211400
      4 CAN          5.3820     1.3230     0.4200 c3         1 5KU       0.197400
      5 CAO          5.7260     2.6630    -0.2340 c3         1 5KU       0.056000
      6 CAT          4.4590     8.3440     1.2760 c3         1 5KU       0.064100
      7 CAU          3.0430     7.8490     0.9500 c3         1 5KU       0.073700
      8 CAV          2.0390     8.8600     1.5150 c3         1 5KU      -0.215300
      9 CAW          2.4170     9.2030     2.9290 c2         1 5KU      -0.376200
     10 CAX          3.6220     8.9580     3.4200 ce         1 5KU       0.178900
     11 CAZ          5.4910     7.3920     0.6680 c3         1 5KU       0.237100
     12 OAJ          1.4300     0.0000     0.0000 os         1 5KU      -0.410600
     13 OAM          3.9660     1.2210     0.5790 os         1 5KU      -0.425600
     14 OAY          4.6090     8.3730     2.6970 os         1 5KU      -0.193900
     15 CBA          6.8950     7.8190     1.0990 c3         1 5KU       0.104100
     16 CBB          7.9160     6.7970     0.5940 c3         1 5KU       0.139400
     17 CBJ          5.5710     5.0350     0.3000 c          1 5KU       0.666100
     18 CBP          1.6880     4.3440     1.6810 c3         1 5KU      -0.059100
     19 CBQ          3.9050     9.3380     4.8160 c          1 5KU       0.934800
     20 NBD          2.0570    10.0750     0.6950 n2         1 5KU      -0.290900
     21 NBG          0.9800    11.5820    -0.7010 nz         1 5KU       0.238900
     22 NBH         -0.2560     9.9830     0.5580 nz         1 5KU       0.238900
     23 NBI          5.3580     3.7560     0.6680 ns         1 5KU      -0.147900
     24 NBM          2.8240     6.5380     1.5670 ns         1 5KU      -0.153900
     25 OBC          9.2360     7.2540     0.8960 oh         1 5KU      -0.557800
     26 OBE          6.9550     7.8890     2.5240 oh         1 5KU      -0.563800
     27 OBK          5.2330     6.0400     1.1300 os         1 5KU      -0.398900
     28 OBL          6.0680     5.2800    -0.7810 o          1 5KU      -0.659000
     29 OBN          1.2760     6.0140     0.0660 o          1 5KU      -0.668100
     30 OBR          3.0400     9.8630     5.4890 o          1 5KU      -0.721800
     31 OBS          5.1210     9.1010     5.3460 o          1 5KU      -0.721800
     32 H1          -0.3610    -1.0160     0.1040 h1         1 5KU      -0.011967
     33 H2          -0.3610     0.4180    -0.9320 h1         1 5KU      -0.011967
     34 H3          -0.3610     0.5980     0.8280 h1         1 5KU      -0.011967
     35 H4           1.6910     0.8850     1.8430 h1         1 5KU      -0.003800
     36 H5           1.6900    -0.8840     1.8430 h1         1 5KU      -0.003800
     37 H6           3.8490    -0.8380     0.5740 h1         1 5KU       0.003700
     38 H7           3.9750    -0.0890     2.1720 h1         1 5KU       0.003700
     39 H8           5.8600     1.2620     1.3900 h1         1 5KU       0.006700
     40 H9           5.7340     0.5140    -0.2080 h1         1 5KU       0.006700
     41 H10          6.7900     2.7030    -0.4350 h1         1 5KU       0.039200
     42 H11          5.1790     2.7620    -1.1640 h1         1 5KU       0.039200
     43 H12          4.5960     9.3410     0.8750 h1         1 5KU       0.046700
     44 H13          2.9210     7.7780    -0.1240 h1         1 5KU       0.074700
     45 H14          3.0460     9.1730     1.2660 h1         1 5KU       0.226700
     46 H15          1.8080     8.6550     3.6380 ha         1 5KU       0.170000
     47 H18          5.3200     7.7220    -0.3490 h1         1 5KU       0.037700
     48 H19          7.1210     8.7920     0.6790 h1         1 5KU       0.008700
     49 H20          7.4130     6.9080    -0.3580 h1         1 5KU       0.042700
     50 H21          7.5170     6.0000     1.2110 h1         1 5KU       0.042700
     51 H22          1.7710     3.5710     0.9270 hc         1 5KU       0.035367
     52 H23          0.7680     4.2090     2.2370 hc         1 5KU       0.035367
     53 H24          2.5320     4.2790     2.3580 hc         1 5KU       0.035367
     54 H26          0.6640    11.2640    -1.5960 hn         1 5KU       0.220133
     55 H27         -0.3270     9.9650     1.5560 hn         1 5KU       0.220133
     56 H28         -0.3020     9.0480     0.2040 hn         1 5KU       0.220133
     57 H29          4.9550     3.5530     1.5620 hn         1 5KU       0.183500
     58 H30          3.3290     6.2840     2.3930 hn         1 5KU       0.225500
     59 H31          9.8500     6.8550     0.3020 ho         1 5KU       0.404000
     60 H32          7.7650     8.2960     2.7850 ho         1 5KU       0.420000
     61 H16          1.9150    11.9310    -0.7820 hn         1 5KU       0.220133
     62 CBF          0.9470    10.5380     0.1940 c2         1 5KU      -0.193900
     63 CBO          1.9140     5.6920     1.0460 c          1 5KU       0.590100
     64 HBG3         0.3780    12.3120    -0.3750 hn         1 5KU       0.220133
     65 HBH3        -1.0270    10.4960     0.1780 hn         1 5KU       0.220133
@<TRIPOS>BOND
     1     1    12 1   
     2     1    32 1   
     3     1    33 1   
     4     1    34 1   
     5     2     3 1   
     6     2    12 1   
     7     2    35 1   
     8     2    36 1   
     9     3    13 1   
    10     3    37 1   
    11     3    38 1   
    12     4     5 1   
    13     4    13 1   
    14     4    39 1   
    15     4    40 1   
    16     5    23 1   
    17     5    41 1   
    18     5    42 1   
    19     6     7 1   
    20     6    11 1   
    21     6    14 1   
    22     6    43 1   
    23     7     8 1   
    24     7    24 1   
    25     7    44 1   
    26     8     9 1   
    27     8    20 1   
    28     8    45 1   
    29     9    10 2   
    30     9    46 1   
    31    10    14 1   
    32    10    19 1   
    33    11    15 1   
    34    11    27 1   
    35    11    47 1   
    36    15    16 1   
    37    15    26 1   
    38    15    48 1   
    39    16    25 1   
    40    16    49 1   
    41    16    50 1   
    42    17    23 1   
    43    17    27 1   
    44    17    28 2   
    45    18    51 1   
    46    18    52 1   
    47    18    53 1   
    48    18    63 1   
    49    19    30 1   
    50    19    31 1   
    51    20    62 2   
    52    21    54 1   
    53    21    61 1   
    54    21    62 1   
    55    21    64 1   
    56    22    55 1   
    57    22    56 1   
    58    22    62 1   
    59    22    65 1   
    60    23    57 1   
    61    24    58 1   
    62    24    63 1   
    63    25    59 1   
    64    26    60 1   
    65    29    63 2   
@<TRIPOS>SUBSTRUCTURE
     1 5KU         1 TEMP              0 ****  ****    0 ROOT
