@<TRIPOS>MOLECULE
5KV
   31    31     1     0     0
SMALL
bcc


@<TRIPOS>ATOM
      1 O13          0.0000     0.0000     0.0000 oh         1 5KV      -0.596800
      2 C18          1.9410     1.2540    -0.7150 c3         1 5KV       0.155100
      3 C19          1.4290     0.0000     0.0000 c3         1 5KV       0.129100
      4 C20          1.9410     0.0000     1.4430 c3         1 5KV       0.171100
      5 C21          3.4700     1.2820    -0.6410 c3         1 5KV       0.177500
      6 C22          3.9040     1.2330     0.8260 c3         1 5KV       0.368900
      7 O25          3.3680     0.0590     1.4410 os         1 5KV      -0.413600
      8 O28          5.3310     1.2020     0.9020 oh         1 5KV      -0.501800
      9 N29          3.9680     2.5150    -1.2580 n7         1 5KV      -0.606100
     10 O30          1.5290     1.2260    -2.0830 oh         1 5KV      -0.565800
     11 C31          1.4840    -1.2790     2.1470 c3         1 5KV       0.262400
     12 O32          1.8610    -1.2260     3.5240 os         1 5KV      -0.494500
     13 S33          1.4540    -2.4540     4.3260 s6         1 5KV       1.335300
     14 S34          5.3950     2.5030    -2.0980 s6         1 5KV       1.107700
     15 O35          6.3430     1.8440    -1.2700 o          1 5KV      -0.658533
     16 O36          5.1930     1.6120    -3.3150 o          1 5KV      -0.658533
     17 O37          5.5800     3.8220    -2.5930 o          1 5KV      -0.658533
     18 O38          0.1710    -2.8360     3.8510 o          1 5KV      -0.692867
     19 O39          2.4060    -3.5780     3.9410 o          1 5KV      -0.692867
     20 O40          1.7210    -2.1500     5.6880 o          1 5KV      -0.692867
     21 H1          -0.3140    -0.6030    -0.6530 ho         1 5KV       0.387000
     22 H2           1.5410     2.1360    -0.2290 h1         1 5KV      -0.004300
     23 H3           1.7950    -0.8810    -0.5120 h1         1 5KV       0.028700
     24 H4           1.5470     0.8640     1.9640 h1         1 5KV       0.006700
     25 H5           3.8720     0.4230    -1.1650 h1         1 5KV       0.077700
     26 H6           3.5300     2.1100     1.3410 h2         1 5KV      -0.036300
     27 H7           5.6000     1.2950     1.8010 ho         1 5KV       0.363000
     28 H8           3.4540     3.3680    -1.1570 hn         1 5KV       0.295800
     29 H9           0.8780     1.8920    -2.2290 ho         1 5KV       0.371000
     30 H10          0.4070    -1.3690     2.0700 h1         1 5KV       0.019200
     31 H11          1.9520    -2.1360     1.6770 h1         1 5KV       0.019200
@<TRIPOS>BOND
     1     1     3 1   
     2     1    21 1   
     3     2     3 1   
     4     2     5 1   
     5     2    10 1   
     6     2    22 1   
     7     3     4 1   
     8     3    23 1   
     9     4     7 1   
    10     4    11 1   
    11     4    24 1   
    12     5     6 1   
    13     5     9 1   
    14     5    25 1   
    15     6     7 1   
    16     6     8 1   
    17     6    26 1   
    18     8    27 1   
    19     9    14 1   
    20     9    28 1   
    21    10    29 1   
    22    11    12 1   
    23    11    30 1   
    24    11    31 1   
    25    12    13 1   
    26    13    18 1   
    27    13    19 1   
    28    13    20 1   
    29    14    15 1   
    30    14    16 1   
    31    14    17 1   
@<TRIPOS>SUBSTRUCTURE
     1 5KV         1 TEMP              0 ****  ****    0 ROOT
