@<TRIPOS>MOLECULE
molecule
   31    31     1     0     0
SMALL
bcc


@<TRIPOS>ATOM
      1 O13          0.0000     0.0000     0.0000 oh         1 5KV      -0.615800
      2 C18          1.9410     1.2540    -0.7150 c3         1 5KV       0.120100
      3 C19          1.4290     0.0000     0.0000 c3         1 5KV       0.090100
      4 C20          1.9410     0.0000     1.4430 c3         1 5KV       0.157100
      5 C21          3.4700     1.2820    -0.6410 c3         1 5KV       0.242500
      6 C22          3.9040     1.2330     0.8260 c3         1 5KV       0.318900
      7 O25          3.3680     0.0590     1.4410 os         1 5KV      -0.428600
      8 O28          5.3310     1.2020     0.9020 oh         1 5KV      -0.518800
      9 N29          3.9680     2.5150    -1.2580 n7         1 5KV      -0.915100
     10 O30          1.5290     1.2260    -2.0830 oh         1 5KV      -0.583800
     11 C31          1.4840    -1.2790     2.1470 c3         1 5KV       0.193400
     12 O32          1.8610    -1.2260     3.5240 os         1 5KV      -0.596500
     13 S33          1.4540    -2.4540     4.3260 s6         1 5KV       1.572300
     14 S34          5.3950     2.5030    -2.0980 s6         1 5KV       1.447700
     15 O35          6.3430     1.8440    -1.2700 o          1 5KV      -0.730200
     16 O36          5.1930     1.6120    -3.3150 o          1 5KV      -0.730200
     17 O37          5.5800     3.8220    -2.5930 o          1 5KV      -0.730200
     18 O38          0.1710    -2.8360     3.8510 o          1 5KV      -0.746867
     19 O39          2.4060    -3.5780     3.9410 o          1 5KV      -0.746867
     20 O40          1.7210    -2.1500     5.6880 o          1 5KV      -0.746867
     21 H1          -0.3140    -0.6030    -0.6530 ho         1 5KV       0.401000
     22 H2           1.5410     2.1360    -0.2290 h1         1 5KV       0.028700
     23 H3           1.7950    -0.8810    -0.5120 h1         1 5KV       0.063700
     24 H4           1.5470     0.8640     1.9640 h1         1 5KV       0.042700
     25 H5           3.8720     0.4230    -1.1650 h1         1 5KV       0.109700
     26 H6           3.5300     2.1100     1.3410 h2         1 5KV       0.001700
     27 H7           5.6000     1.2950     1.8010 ho         1 5KV       0.387000
     28 H8           3.4540     3.3680    -1.1570 hn         1 5KV       0.400800
     29 H9           0.8780     1.8920    -2.2290 ho         1 5KV       0.388000
     30 H10          0.4070    -1.3690     2.0700 h1         1 5KV       0.062700
     31 H11          1.9520    -2.1360     1.6770 h1         1 5KV       0.062700
@<TRIPOS>BOND
     1    10     2 1
     2     1     3 1
     3     2     3 1
     4     2     5 1
     5    17    14 1
     6     3     4 1
     7    15    14 1
     8     9    14 1
     9     9     5 1
    10    14    16 1
    11     5     6 1
    12     4    11 1
    13     4     7 1
    14     6     7 1
    15     6     8 1
    16    11    12 1
    17    12    13 1
    18    18    13 1
    19    13    20 1
    20    13    19 1
    21     1    21 1
    22     2    22 1
    23     3    23 1
    24     4    24 1
    25     5    25 1
    26     6    26 1
    27     8    27 1
    28     9    28 1
    29    10    29 1
    30    11    30 1
    31    11    31 1
@<TRIPOS>SUBSTRUCTURE
     1 5KV         1 TEMP              0 ****  ****    0 ROOT
