@<TRIPOS>MOLECULE
molecule
   57    60     1     0     0
SMALL
bcc


@<TRIPOS>ATOM
      1 C01          0.0000     0.0000     0.0000 c3         1 5KW       0.141100
      2 N02          1.4690     0.0000     0.0000 n3         1 5KW      -0.721600
      3 C03          1.9960     0.0000     1.3720 c3         1 5KW       0.160300
      4 C04          1.5980    -1.3030     2.0690 c3         1 5KW       0.120800
      5 C05          1.9940    -1.1400    -0.7630 c3         1 5KW       0.160300
      6 C06          1.5980    -2.4440    -0.0660 c3         1 5KW       0.120800
      7 N07          2.1240    -2.4440     1.3050 nh         1 5KW      -0.590000
      8 C08          1.8420    -3.6530     1.9510 ca         1 5KW       0.090600
      9 C09          2.2560    -4.8530     1.3910 ca         1 5KW      -0.153000
     10 C10          1.9780    -6.0460     2.0270 ca         1 5KW      -0.116500
     11 C11          1.1520    -3.6510     3.1570 ca         1 5KW      -0.153000
     12 C12          0.8740    -4.8440     3.7940 ca         1 5KW      -0.116500
     13 C13          1.2830    -6.0450     3.2300 ca         1 5KW       0.121600
     14 N14          1.0000    -7.2540     3.8770 nu         1 5KW      -0.742300
     15 C15          0.7050    -8.3860     3.1320 ca         1 5KW       0.972900
     16 N16          0.7740    -8.3250     1.8110 nb         1 5KW      -0.803000
     17 C17          0.5000    -9.3850     1.0660 ca         1 5KW       0.527200
     18 C18          0.1370   -10.5690     1.6830 ca         1 5KW      -0.306200
     19 Cl1         -0.2300   -11.9830     0.7450 cl         1 5KW      -0.083400
     20 C20          0.0740   -10.6010     3.0760 ca         1 5KW       0.727600
     21 O21         -0.2750   -11.7400     3.7220 os         1 5KW      -0.340400
     22 C22         -0.4240   -11.6880     5.0720 ca         1 5KW       0.068100
     23 C23          0.5950   -12.1320     5.9010 ca         1 5KW      -0.102000
     24 C24          0.4430   -12.0790     7.2740 ca         1 5KW      -0.137000
     25 C25         -0.7250   -11.5830     7.8250 ca         1 5KW      -0.104000
     26 C26         -1.7450   -11.1390     7.0060 ca         1 5KW      -0.123000
     27 C27         -1.5980   -11.1830     5.6280 ca         1 5KW       0.065600
     28 N28         -2.6300   -10.7320     4.7950 ns         1 5KW      -0.476100
     29 C29         -3.4070    -9.7010     5.1830 c          1 5KW       0.647100
     30 C30         -4.5980    -9.3000     4.3520 c3         1 5KW      -0.037000
     31 O31         -3.1470    -9.0960     6.2020 o          1 5KW      -0.562100
     32 N32          0.3680    -9.5020     3.7600 nb         1 5KW      -0.840000
     33 H1          -0.3610     0.1360    -1.0120 h1         1 5KW       0.034367
     34 H2          -0.3610    -0.9450     0.3880 h1         1 5KW       0.034367
     35 H3          -0.3610     0.8090     0.6240 h1         1 5KW       0.034367
     36 H5           1.5820     0.8400     1.9170 h1         1 5KW       0.063950
     37 H6           3.0760     0.0770     1.3430 h1         1 5KW       0.063950
     38 H7           0.5170    -1.3700     2.1180 h1         1 5KW       0.046700
     39 H8           2.0120    -1.3180     3.0700 h1         1 5KW       0.046700
     40 H9           1.5790    -1.1260    -1.7640 h1         1 5KW       0.063950
     41 H10          3.0740    -1.0730    -0.8130 h1         1 5KW       0.063950
     42 H11          0.5170    -2.5220    -0.0380 h1         1 5KW       0.046700
     43 H12          2.0120    -3.2840    -0.6110 h1         1 5KW       0.046700
     44 H13          2.7970    -4.8540     0.4520 ha         1 5KW       0.139000
     45 H14          2.2990    -6.9820     1.5870 ha         1 5KW       0.149500
     46 H15          0.8320    -2.7140     3.5970 ha         1 5KW       0.139000
     47 H16          0.3340    -4.8440     4.7340 ha         1 5KW       0.149500
     48 H17          1.0460    -7.3100     4.8750 hn         1 5KW       0.472800
     49 H18          0.5580    -9.3250    -0.0140 h4         1 5KW       0.046100
     50 H19          1.5100   -12.5210     5.4720 ha         1 5KW       0.146000
     51 H20          1.2400   -12.4270     7.9190 ha         1 5KW       0.137000
     52 H21         -0.8410   -11.5460     8.9010 ha         1 5KW       0.139000
     53 H22         -2.6570   -10.7490     7.4410 ha         1 5KW       0.165000
     54 H23         -2.8230   -11.2080     3.9360 hn         1 5KW       0.332500
     55 H24         -5.2860   -10.1340     4.2810 h1         1 5KW       0.083200
     56 H25         -4.2680    -9.0200     3.3590 h1         1 5KW       0.083200
     57 Cl2         -5.4280    -7.9000     5.1280 cl         1 5KW      -0.140400
@<TRIPOS>BOND
     1     3     2 1
     2     3     4 1
     3     2     5 1
     4     2     1 1
     5     5     6 1
     6     4     7 1
     7    25    26 ar
     8    25    24 ar
     9     7     6 1
    10     7     8 1
    11    26    27 ar
    12    11     8 ar
    13    11    12 ar
    14    31    29 2
    15     8     9 ar
    16    24    23 ar
    17    29    30 1
    18    29    28 1
    19    12    13 ar
    20    27    28 1
    21    27    22 ar
    22     9    10 ar
    23    23    22 ar
    24    13    10 ar
    25    13    14 1
    26    22    21 1
    27    14    15 1
    28    32    15 ar
    29    32    20 ar
    30    15    16 ar
    31    21    20 1
    32    20    18 ar
    33    16    17 ar
    34    18    17 ar
    35    18    19 1
    36     1    33 1
    37     1    34 1
    38     1    35 1
    39     3    36 1
    40     3    37 1
    41     4    38 1
    42     4    39 1
    43     5    40 1
    44     5    41 1
    45     6    42 1
    46     6    43 1
    47     9    44 1
    48    10    45 1
    49    11    46 1
    50    12    47 1
    51    14    48 1
    52    17    49 1
    53    23    50 1
    54    24    51 1
    55    25    52 1
    56    26    53 1
    57    28    54 1
    58    30    55 1
    59    30    56 1
    60    30    57 1
@<TRIPOS>SUBSTRUCTURE
     1 5KW         1 TEMP              0 ****  ****    0 ROOT
