@<TRIPOS>MOLECULE
5KW
   57    60     1     0     0
SMALL
bcc


@<TRIPOS>ATOM
      1 C01          0.0000     0.0000     0.0000 c3         1 5KW       0.167100
      2 N02          1.4690     0.0000     0.0000 n3         1 5KW      -0.542600
      3 C03          1.9960     0.0000     1.3720 c3         1 5KW       0.155800
      4 C04          1.5980    -1.3030     2.0690 c3         1 5KW       0.090800
      5 C05          1.9940    -1.1400    -0.7630 c3         1 5KW       0.155800
      6 C06          1.5980    -2.4440    -0.0660 c3         1 5KW       0.090800
      7 N07          2.1240    -2.4440     1.3050 nh         1 5KW      -0.353000
      8 C08          1.8420    -3.6530     1.9510 ca         1 5KW       0.010600
      9 C09          2.2560    -4.8530     1.3910 ca         1 5KW      -0.131500
     10 C10          1.9780    -6.0460     2.0270 ca         1 5KW      -0.088500
     11 C11          1.1520    -3.6510     3.1570 ca         1 5KW      -0.131500
     12 C12          0.8740    -4.8440     3.7940 ca         1 5KW      -0.088500
     13 C13          1.2830    -6.0450     3.2300 ca         1 5KW      -0.040400
     14 N14          1.0000    -7.2540     3.8770 nu         1 5KW      -0.266300
     15 C15          0.7050    -8.3860     3.1320 ca         1 5KW       0.735900
     16 N16          0.7740    -8.3250     1.8110 nb         1 5KW      -0.711000
     17 C17          0.5000    -9.3850     1.0660 ca         1 5KW       0.521200
     18 C18          0.1370   -10.5690     1.6830 ca         1 5KW      -0.391200
     19 Cl1         -0.2300   -11.9830     0.7450 cl         1 5KW       0.016600
     20 C20          0.0740   -10.6010     3.0760 ca         1 5KW       0.688600
     21 O21         -0.2750   -11.7400     3.7220 os         1 5KW      -0.327400
     22 C22         -0.4240   -11.6880     5.0720 ca         1 5KW       0.079100
     23 C23          0.5950   -12.1320     5.9010 ca         1 5KW      -0.085000
     24 C24          0.4430   -12.0790     7.2740 ca         1 5KW      -0.102000
     25 C25         -0.7250   -11.5830     7.8250 ca         1 5KW      -0.080000
     26 C26         -1.7450   -11.1390     7.0060 ca         1 5KW      -0.093000
     27 C27         -1.5980   -11.1830     5.6280 ca         1 5KW      -0.091400
     28 N28         -2.6300   -10.7320     4.7950 ns         1 5KW      -0.030100
     29 C29         -3.4070    -9.7010     5.1830 c          1 5KW       0.543100
     30 C30         -4.5980    -9.3000     4.3520 c3         1 5KW      -0.023000
     31 O31         -3.1470    -9.0960     6.2020 o          1 5KW      -0.609100
     32 N32          0.3680    -9.5020     3.7600 nb         1 5KW      -0.742000
     33 H1          -0.3610     0.1360    -1.0120 h1         1 5KW       0.005367
     34 H2          -0.3610    -0.9450     0.3880 h1         1 5KW       0.005367
     35 H3          -0.3610     0.8090     0.6240 h1         1 5KW       0.005367
     36 H5           1.5820     0.8400     1.9170 h1         1 5KW       0.030200
     37 H6           3.0760     0.0770     1.3430 h1         1 5KW       0.030200
     38 H7           0.5170    -1.3700     2.1180 h1         1 5KW       0.027200
     39 H8           2.0120    -1.3180     3.0700 h1         1 5KW       0.027200
     40 H9           1.5790    -1.1260    -1.7640 h1         1 5KW       0.030200
     41 H10          3.0740    -1.0730    -0.8130 h1         1 5KW       0.030200
     42 H11          0.5170    -2.5220    -0.0380 h1         1 5KW       0.027200
     43 H12          2.0120    -3.2840    -0.6110 h1         1 5KW       0.027200
     44 H13          2.7970    -4.8540     0.4520 ha         1 5KW       0.119000
     45 H14          2.2990    -6.9820     1.5870 ha         1 5KW       0.124500
     46 H15          0.8320    -2.7140     3.5970 ha         1 5KW       0.119000
     47 H16          0.3340    -4.8440     4.7340 ha         1 5KW       0.124500
     48 H17          1.0460    -7.3100     4.8750 hn         1 5KW       0.297800
     49 H18          0.5580    -9.3250    -0.0140 h4         1 5KW      -0.007900
     50 H19          1.5100   -12.5210     5.4720 ha         1 5KW       0.114000
     51 H20          1.2400   -12.4270     7.9190 ha         1 5KW       0.106000
     52 H21         -0.8410   -11.5460     8.9010 ha         1 5KW       0.107000
     53 H22         -2.6570   -10.7490     7.4410 ha         1 5KW       0.141000
     54 H23         -2.8230   -11.2080     3.9360 hn         1 5KW       0.173500
     55 H24         -5.2860   -10.1340     4.2810 h1         1 5KW       0.036700
     56 H25         -4.2680    -9.0200     3.3590 h1         1 5KW       0.036700
     57 Cl2         -5.4280    -7.9000     5.1280 cl         1 5KW      -0.068400
@<TRIPOS>BOND
     1     1     2 1   
     2     1    33 1   
     3     1    34 1   
     4     1    35 1   
     5     2     3 1   
     6     2     5 1   
     7     3     4 1   
     8     3    36 1   
     9     3    37 1   
    10     4     7 1   
    11     4    38 1   
    12     4    39 1   
    13     5     6 1   
    14     5    40 1   
    15     5    41 1   
    16     6     7 1   
    17     6    42 1   
    18     6    43 1   
    19     7     8 1   
    20     8     9 ar  
    21     8    11 ar  
    22     9    10 ar  
    23     9    44 1   
    24    10    13 ar  
    25    10    45 1   
    26    11    12 ar  
    27    11    46 1   
    28    12    13 ar  
    29    12    47 1   
    30    13    14 1   
    31    14    15 1   
    32    14    48 1   
    33    15    16 ar  
    34    15    32 ar  
    35    16    17 ar  
    36    17    18 ar  
    37    17    49 1   
    38    18    19 1   
    39    18    20 ar  
    40    20    21 1   
    41    20    32 ar  
    42    21    22 1   
    43    22    23 ar  
    44    22    27 ar  
    45    23    24 ar  
    46    23    50 1   
    47    24    25 ar  
    48    24    51 1   
    49    25    26 ar  
    50    25    52 1   
    51    26    27 ar  
    52    26    53 1   
    53    27    28 1   
    54    28    29 1   
    55    28    54 1   
    56    29    30 1   
    57    29    31 2   
    58    30    55 1   
    59    30    56 1   
    60    30    57 1   
@<TRIPOS>SUBSTRUCTURE
     1 5KW         1 TEMP              0 ****  ****    0 ROOT
