@<TRIPOS>MOLECULE
molecule
    9     9     1     0     0
SMALL
bcc


@<TRIPOS>ATOM
      1 Cl1          0.0000     0.0000     0.0000 cl         1 5KX      -0.105000
      2 C02          1.7360     0.0000     0.0000 cc         1 5KX       0.484500
      3 N03          2.5240     0.0000     1.0980 na         1 5KX      -0.290900
      4 C04          3.8240    -0.0010     0.6630 cd         1 5KX      -0.267600
      5 C05          3.7850    -0.0020    -0.6820 cc         1 5KX       0.322200
      6 N06          2.4980    -0.0070    -1.0610 nc         1 5KX      -0.676000
      7 H1           2.2160     0.0010     2.0500 hn         1 5KX       0.305700
      8 H2           4.7120     0.0010     1.2840 h4         1 5KX       0.179000
      9 H3           4.6440    -0.0040    -1.3430 h4         1 5KX       0.047100
@<TRIPOS>BOND
     1     6     5 1   
     2     6     2 2   
     3     5     4 2   
     4     2     1 1   
     5     2     3 1   
     6     4     3 1   
     7     3     7 1   
     8     4     8 1   
     9     5     9 1   
@<TRIPOS>SUBSTRUCTURE
     1 5KX         1 TEMP              0 ****  ****    0 ROOT
