@<TRIPOS>MOLECULE
molecule
   38    39     1     0     0
SMALL
bcc


@<TRIPOS>ATOM
      1 C4           0.0000     0.0000     0.0000 ca         1 5KY      -0.137600
      2 C5          -0.7410     0.0060    -1.2740 c          1 5KY       0.894200
      3 C6           1.4040     0.0000     0.0000 ca         1 5KY       0.085600
      4 C3          -0.6900     0.0010     1.2160 ca         1 5KY      -0.077000
      5 C2           0.0080     0.0010     2.4020 ca         1 5KY      -0.175000
      6 C1           1.3950     0.0000     2.3990 ca         1 5KY      -0.093300
      7 C            2.1470     0.0010     3.7050 c3         1 5KY      -0.037800
      8 O1          -0.1400     0.1010    -2.3260 o          1 5KY      -0.842300
      9 O2           3.6620    -1.3500    -0.3780 o          1 5KY      -0.668100
     10 F2           9.0680    -4.2670    -1.9790 f          1 5KY      -0.231633
     11 F           10.0650    -2.2220    -2.1840 f          1 5KY      -0.231633
     12 F1           9.4020    -3.3620    -4.0500 f          1 5KY      -0.231633
     13 C11          7.7440    -2.4120    -2.6420 ca         1 5KY      -0.208300
     14 C10          6.7240    -3.0010    -1.9200 ca         1 5KY      -0.086000
     15 C9           5.4830    -2.3970    -1.8490 ca         1 5KY      -0.127000
     16 C13          7.5320    -1.2110    -3.2940 ca         1 5KY      -0.097000
     17 C14          6.2900    -0.5970    -3.2280 ca         1 5KY       0.115600
     18 N2           6.0720     0.6180    -3.8860 nv         1 5KY      -0.975200
     19 C8           5.2580    -1.1950    -2.5040 ca         1 5KY       0.101600
     20 N1           4.0000    -0.5790    -2.4330 ns         1 5KY      -0.489100
     21 C7           3.2690    -0.6680    -1.3040 c          1 5KY       0.773100
     22 N            2.1030     0.0000    -1.2030 ns         1 5KY      -0.450100
     23 O           -2.0850    -0.0940    -1.2720 o          1 5KY      -0.842300
     24 C15          2.0900     0.0000     1.2080 ca         1 5KY      -0.156000
     25 H1          -1.7740     0.0010     1.2240 ha         1 5KY       0.155000
     26 H2          -0.5280     0.0010     3.3430 ha         1 5KY       0.107000
     27 H3           2.5660    -0.9820     3.8810 hc         1 5KY       0.029367
     28 H4           2.9450     0.7320     3.6620 hc         1 5KY       0.029367
     29 H5           1.4690     0.2540     4.5120 hc         1 5KY       0.029367
     30 H6           6.8970    -3.9400    -1.4070 ha         1 5KY       0.145000
     31 H7           4.6850    -2.8630    -1.2840 ha         1 5KY       0.188000
     32 H8           8.3360    -0.7490    -3.8520 ha         1 5KY       0.138000
     33 H9           5.9620     1.4610    -3.3580 hn         1 5KY       0.426800
     34 H10          6.0690     0.6510    -4.8870 hn         1 5KY       0.426800
     35 H11          3.6270    -0.1110    -3.2350 hn         1 5KY       0.333500
     36 H12          1.7630     0.5330    -1.9790 hn         1 5KY       0.363500
     37 H14          3.1740    -0.0000     1.2140 ha         1 5KY       0.141000
     38 C12          9.0950    -3.0780    -2.7160 c3         1 5KY       0.674200
@<TRIPOS>BOND
     1    12    38 1   
     2    11    38 1   
     3    38    13 1   
     4    38    10 1   
     5    16    13 ar  
     6    16    17 ar  
     7    18    17 1   
     8    13    14 ar  
     9    17    19 ar  
    10    14    15 ar  
    11    19    15 ar  
    12    19    20 1   
    13    20    21 1   
    14     8     2 1   
    15    21    22 1   
    16    21     9 2   
    17     2    23 1   
    18     2     1 1   
    19    22     3 1   
    20     1     3 ar  
    21     1     4 ar  
    22     3    24 ar  
    23     4     5 ar  
    24    24     6 ar  
    25     5     6 ar  
    26     6     7 1   
    27     4    25 1   
    28     5    26 1   
    29     7    27 1   
    30     7    28 1   
    31     7    29 1   
    32    14    30 1   
    33    15    31 1   
    34    16    32 1   
    35    18    33 1   
    36    18    34 1   
    37    20    35 1   
    38    22    36 1   
    39    24    37 1   
@<TRIPOS>SUBSTRUCTURE
     1 5KY         1 TEMP              0 ****  ****    0 ROOT
