@<TRIPOS>MOLECULE
5KY
   38    39     1     0     0
SMALL
bcc


@<TRIPOS>ATOM
      1 C4           0.0000     0.0000     0.0000 ca         1 5KY      -0.139600
      2 C5          -0.7410     0.0060    -1.2740 c          1 5KY       0.990200
      3 C6           1.4040     0.0000     0.0000 ca         1 5KY      -0.056400
      4 C3          -0.6900     0.0010     1.2160 ca         1 5KY      -0.046000
      5 C2           0.0080     0.0010     2.4020 ca         1 5KY      -0.154000
      6 C1           1.3950     0.0000     2.3990 ca         1 5KY      -0.100300
      7 C            2.1470     0.0010     3.7050 c3         1 5KY       0.071200
      8 O1          -0.1400     0.1010    -2.3260 o          1 5KY      -0.888800
      9 O2           3.6620    -1.3500    -0.3780 o          1 5KY      -0.720100
     10 F2           9.0680    -4.2670    -1.9790 f          1 5KY      -0.215633
     11 F           10.0650    -2.2220    -2.1840 f          1 5KY      -0.215633
     12 F1           9.4020    -3.3620    -4.0500 f          1 5KY      -0.215633
     13 C11          7.7440    -2.4120    -2.6420 ca         1 5KY      -0.243300
     14 C10          6.7240    -3.0010    -1.9200 ca         1 5KY      -0.044000
     15 C9           5.4830    -2.3970    -1.8490 ca         1 5KY      -0.109000
     16 C13          7.5320    -1.2110    -3.2940 ca         1 5KY      -0.053000
     17 C14          6.2900    -0.5970    -3.2280 ca         1 5KY      -0.028400
     18 N2           6.0720     0.6180    -3.8860 nv         1 5KY      -0.534200
     19 C8           5.2580    -1.1950    -2.5040 ca         1 5KY      -0.030400
     20 N1           4.0000    -0.5790    -2.4330 ns         1 5KY      -0.059100
     21 C7           3.2690    -0.6680    -1.3040 c          1 5KY       0.542100
     22 N            2.1030     0.0000    -1.2030 ns         1 5KY      -0.018100
     23 O           -2.0850    -0.0940    -1.2720 o          1 5KY      -0.888800
     24 C15          2.0900     0.0000     1.2080 ca         1 5KY      -0.137000
     25 H1          -1.7740     0.0010     1.2240 ha         1 5KY       0.128000
     26 H2          -0.5280     0.0010     3.3430 ha         1 5KY       0.089000
     27 H3           2.5660    -0.9820     3.8810 hc         1 5KY      -0.004300
     28 H4           2.9450     0.7320     3.6620 hc         1 5KY      -0.004300
     29 H5           1.4690     0.2540     4.5120 hc         1 5KY      -0.004300
     30 H6           6.8970    -3.9400    -1.4070 ha         1 5KY       0.115000
     31 H7           4.6850    -2.8630    -1.2840 ha         1 5KY       0.165000
     32 H8           8.3360    -0.7490    -3.8520 ha         1 5KY       0.108000
     33 H9           5.9620     1.4610    -3.3580 hn         1 5KY       0.269300
     34 H10          6.0690     0.6510    -4.8870 hn         1 5KY       0.269300
     35 H11          3.6270    -0.1110    -3.2350 hn         1 5KY       0.174500
     36 H12          1.7630     0.5330    -1.9790 hn         1 5KY       0.219500
     37 H14          3.1740    -0.0000     1.2140 ha         1 5KY       0.128000
     38 C12          9.0950    -3.0780    -2.7160 c3         1 5KY       0.641200
@<TRIPOS>BOND
     1     1     2 1   
     2     1     3 ar  
     3     1     4 ar  
     4     2     8 1   
     5     2    23 1   
     6     3    22 1   
     7     3    24 ar  
     8     4     5 ar  
     9     4    25 1   
    10     5     6 ar  
    11     5    26 1   
    12     6     7 1   
    13     6    24 ar  
    14     7    27 1   
    15     7    28 1   
    16     7    29 1   
    17     9    21 2   
    18    10    38 1   
    19    11    38 1   
    20    12    38 1   
    21    13    14 ar  
    22    13    16 ar  
    23    13    38 1   
    24    14    15 ar  
    25    14    30 1   
    26    15    19 ar  
    27    15    31 1   
    28    16    17 ar  
    29    16    32 1   
    30    17    18 1   
    31    17    19 ar  
    32    18    33 1   
    33    18    34 1   
    34    19    20 1   
    35    20    21 1   
    36    20    35 1   
    37    21    22 1   
    38    22    36 1   
    39    24    37 1   
@<TRIPOS>SUBSTRUCTURE
     1 5KY         1 TEMP              0 ****  ****    0 ROOT
