@<TRIPOS>MOLECULE
5L0
   47    51     1     0     0
SMALL
bcc


@<TRIPOS>ATOM
      1 CAN          0.0000     0.0000     0.0000 c3         1 5L0       0.124800
      2 CAL          1.5330     0.0000     0.0000 c3         1 5L0       0.198400
      3 OAQ          2.0040     0.0000     1.3500 os         1 5L0      -0.400600
      4 CAM          1.6280    -1.1570     2.1010 c3         1 5L0       0.198400
      5 CAO          0.1010    -1.2160     2.2080 c3         1 5L0       0.124800
      6 NAY         -0.4650    -1.1040     0.8530 nh         1 5L0      -0.359000
      7 CAS         -1.4080    -2.0130     0.3950 cc         1 5L0       0.071600
      8 CAK         -1.7430    -3.1210     1.1570 cd         1 5L0      -0.192000
      9 CAX         -2.6960    -4.0180     0.6720 cd         1 5L0      -0.166300
     10 CAF         -2.0430    -1.8180    -0.8470 cc         1 5L0      -0.157000
     11 CAI         -2.9590    -2.7060    -1.2850 cd         1 5L0      -0.239300
     12 NBA         -3.2890    -3.8020    -0.5420 na         1 5L0       0.711700
     13 CAU         -4.1870    -4.8310    -0.7830 cd         1 5L0      -0.528300
     14 CAR         -4.9910    -4.9660    -1.9230 c          1 5L0       0.676300
     15 OAB         -4.9340    -4.1350    -2.8100 o          1 5L0      -0.623100
     16 CAA         -5.9260    -6.1410    -2.0510 c3         1 5L0      -0.082100
     17 CAJ         -4.1560    -5.7070     0.2970 cc         1 5L0      -0.001000
     18 CAT         -3.2300    -5.2120     1.2140 cc         1 5L0      -0.189200
     19 CAV         -2.8710    -5.8200     2.5060 cc         1 5L0      -0.158100
     20 NAZ         -3.7350    -5.7260     3.5700 na         1 5L0       0.632700
     21 CAH         -4.9670    -5.1430     3.7170 cc         1 5L0      -0.450100
     22 CAD         -5.3610    -5.3590     4.9900 cd         1 5L0       0.058600
     23 NAP         -4.4100    -6.0540     5.6200 nd         1 5L0      -0.260600
     24 CAW         -3.4110    -6.2890     4.7780 cc         1 5L0      -0.249300
     25 CAG         -2.1860    -6.9650     4.9280 cc         1 5L0      -0.033000
     26 CAC         -1.3290    -7.0570     3.8710 cd         1 5L0      -0.135000
     27 CAE         -1.6730    -6.4860     2.6440 cd         1 5L0      -0.091000
     28 H1          -0.3630     0.9420     0.3940 h1         1 5L0       0.034950
     29 H2          -0.3630    -0.1440    -1.0100 h1         1 5L0       0.034950
     30 H3           1.8930    -0.8860    -0.5080 h1         1 5L0       0.016450
     31 H4           1.8930     0.8860    -0.5080 h1         1 5L0       0.016450
     32 H5           1.9890    -2.0460     1.5980 h1         1 5L0       0.016450
     33 H6           2.0570    -1.0980     3.0940 h1         1 5L0       0.016450
     34 H7          -0.1970    -2.1590     2.6500 h1         1 5L0       0.034950
     35 H8          -0.2530    -0.3940     2.8190 h1         1 5L0       0.034950
     36 H9          -1.3980    -3.1980     2.1810 ha         1 5L0       0.139000
     37 H10         -1.8060    -0.9460    -1.4440 ha         1 5L0       0.132000
     38 H11         -3.4410    -2.5460    -2.2420 h4         1 5L0       0.174000
     39 H12         -6.4510    -6.0840    -2.9970 hc         1 5L0       0.024700
     40 H13         -6.6420    -6.1240    -1.2390 hc         1 5L0       0.024700
     41 H14         -5.3560    -7.0620    -2.0110 hc         1 5L0       0.024700
     42 H15         -4.6650    -6.6610     0.3580 ha         1 5L0       0.131000
     43 H16         -5.5210    -4.6090     2.9540 h4         1 5L0       0.164000
     44 H17         -6.2940    -5.0250     5.4280 h4         1 5L0       0.137000
     45 H18         -1.9230    -7.4070     5.8820 ha         1 5L0       0.122000
     46 H19         -0.3870    -7.5810     3.9810 ha         1 5L0       0.114000
     47 H20         -0.9930    -6.5580     1.8040 ha         1 5L0       0.122000
@<TRIPOS>BOND
     1     1     2 1   
     2     1     6 1   
     3     1    28 1   
     4     1    29 1   
     5     2     3 1   
     6     2    30 1   
     7     2    31 1   
     8     3     4 1   
     9     4     5 1   
    10     4    32 1   
    11     4    33 1   
    12     5     6 1   
    13     5    34 1   
    14     5    35 1   
    15     6     7 1   
    16     7     8 2   
    17     7    10 1   
    18     8     9 1   
    19     8    36 1   
    20     9    12 1   
    21     9    18 2   
    22    10    11 2   
    23    10    37 1   
    24    11    12 1   
    25    11    38 1   
    26    12    13 1   
    27    13    14 1   
    28    13    17 2   
    29    14    15 2   
    30    14    16 1   
    31    16    39 1   
    32    16    40 1   
    33    16    41 1   
    34    17    18 1   
    35    17    42 1   
    36    18    19 1   
    37    19    20 1   
    38    19    27 2   
    39    20    21 1   
    40    20    24 1   
    41    21    22 2   
    42    21    43 1   
    43    22    23 1   
    44    22    44 1   
    45    23    24 2   
    46    24    25 1   
    47    25    26 2   
    48    25    45 1   
    49    26    27 1   
    50    26    46 1   
    51    27    47 1   
@<TRIPOS>SUBSTRUCTURE
     1 5L0         1 TEMP              0 ****  ****    0 ROOT
