@<TRIPOS>MOLECULE
molecule
   47    51     1     0     0
SMALL
bcc


@<TRIPOS>ATOM
      1 CAN          0.0000     0.0000     0.0000 c3         1 5L0       0.195800
      2 CAL          1.5330     0.0000     0.0000 c3         1 5L0       0.119900
      3 OAQ          2.0040     0.0000     1.3500 os         1 5L0      -0.415600
      4 CAM          1.6280    -1.1570     2.1010 c3         1 5L0       0.119900
      5 CAO          0.1010    -1.2160     2.2080 c3         1 5L0       0.195800
      6 NAY         -0.4650    -1.1040     0.8530 nh         1 5L0      -0.719000
      7 CAS         -1.4080    -2.0130     0.3950 cc         1 5L0       0.229600
      8 CAK         -1.7430    -3.1210     1.1570 cc         1 5L0      -0.246000
      9 CAX         -2.6960    -4.0180     0.6720 cc         1 5L0       0.051700
     10 CAF         -2.0430    -1.8180    -0.8470 cc         1 5L0      -0.225000
     11 CAI         -2.9590    -2.7060    -1.2850 cd         1 5L0      -0.020300
     12 NBA         -3.2890    -3.8020    -0.5420 na         1 5L0       0.095700
     13 CAU         -4.1870    -4.8310    -0.7830 cc         1 5L0      -0.297300
     14 CAR         -4.9910    -4.9660    -1.9230 c          1 5L0       0.608300
     15 OAB         -4.9340    -4.1350    -2.8100 o          1 5L0      -0.582100
     16 CAA         -5.9260    -6.1410    -2.0510 c3         1 5L0      -0.180100
     17 CAJ         -4.1560    -5.7070     0.2970 cd         1 5L0      -0.041000
     18 CAT         -3.2300    -5.2120     1.2140 cd         1 5L0      -0.198200
     19 CAV         -2.8710    -5.8200     2.5060 cd         1 5L0       0.044900
     20 NAZ         -3.7350    -5.7260     3.5700 na         1 5L0       0.054700
     21 CAH         -4.9670    -5.1430     3.7170 cd         1 5L0      -0.247100
     22 CAD         -5.3610    -5.3590     4.9900 cc         1 5L0       0.030600
     23 NAP         -4.4100    -6.0540     5.6200 nc         1 5L0      -0.321600
     24 CAW         -3.4110    -6.2890     4.7780 cd         1 5L0      -0.029300
     25 CAG         -2.1860    -6.9650     4.9280 cd         1 5L0      -0.092000
     26 CAC         -1.3290    -7.0570     3.8710 cc         1 5L0      -0.132000
     27 CAE         -1.6730    -6.4860     2.6440 cc         1 5L0      -0.153000
     28 H1          -0.3630     0.9420     0.3940 h1         1 5L0       0.061450
     29 H2          -0.3630    -0.1440    -1.0100 h1         1 5L0       0.061450
     30 H3           1.8930    -0.8860    -0.5080 h1         1 5L0       0.057700
     31 H4           1.8930     0.8860    -0.5080 h1         1 5L0       0.057700
     32 H5           1.9890    -2.0460     1.5980 h1         1 5L0       0.057700
     33 H6           2.0570    -1.0980     3.0940 h1         1 5L0       0.057700
     34 H7          -0.1970    -2.1590     2.6500 h1         1 5L0       0.061450
     35 H8          -0.2530    -0.3940     2.8190 h1         1 5L0       0.061450
     36 H9          -1.3980    -3.1980     2.1810 ha         1 5L0       0.160000
     37 H10         -1.8060    -0.9460    -1.4440 ha         1 5L0       0.157000
     38 H11         -3.4410    -2.5460    -2.2420 h4         1 5L0       0.199000
     39 H12         -6.4510    -6.0840    -2.9970 hc         1 5L0       0.061367
     40 H13         -6.6420    -6.1240    -1.2390 hc         1 5L0       0.061367
     41 H14         -5.3560    -7.0620    -2.0110 hc         1 5L0       0.061367
     42 H15         -4.6650    -6.6610     0.3580 ha         1 5L0       0.163000
     43 H16         -5.5210    -4.6090     2.9540 h4         1 5L0       0.182000
     44 H17         -6.2940    -5.0250     5.4280 h4         1 5L0       0.180000
     45 H18         -1.9230    -7.4070     5.8820 ha         1 5L0       0.157000
     46 H19         -0.3870    -7.5810     3.9810 ha         1 5L0       0.140000
     47 H20         -0.9930    -6.5580     1.8040 ha         1 5L0       0.153000
@<TRIPOS>BOND
     1    23    24 2   
     2    23    22 1   
     3    25    24 1   
     4    25    26 2   
     5    24    20 1   
     6    22    21 2   
     7    26    27 1   
     8    21    20 1   
     9    20    19 1   
    10    27    19 2   
    11    19    18 1   
    12    17    18 1   
    13    17    13 2   
    14    18     9 2   
    15    16    14 1   
    16    13    14 1   
    17    13    12 1   
    18     9     8 1   
    19     9    12 1   
    20    14    15 2   
    21     8     7 2   
    22    12    11 1   
    23     5     6 1   
    24     5     4 1   
    25     7     6 1   
    26     7    10 1   
    27    11    10 2   
    28     6     1 1   
    29     4     3 1   
    30     3     2 1   
    31     1     2 1   
    32     1    28 1   
    33     1    29 1   
    34     2    30 1   
    35     2    31 1   
    36     4    32 1   
    37     4    33 1   
    38     5    34 1   
    39     5    35 1   
    40     8    36 1   
    41    10    37 1   
    42    11    38 1   
    43    16    39 1   
    44    16    40 1   
    45    16    41 1   
    46    17    42 1   
    47    21    43 1   
    48    22    44 1   
    49    25    45 1   
    50    26    46 1   
    51    27    47 1   
@<TRIPOS>SUBSTRUCTURE
     1 5L0         1 TEMP              0 ****  ****    0 ROOT
