@<TRIPOS>MOLECULE
molecule
   56    57     1     0     0
SMALL
bcc


@<TRIPOS>ATOM
      1 C1           0.0000     0.0000     0.0000 c3         1 5L2       0.017900
      2 C2           1.5310     0.0000     0.0000 c3         1 5L2       0.142100
      3 C3           2.0340     0.0000     1.4460 c3         1 5L2       0.095100
      4 C4           1.4530    -1.2140     2.1770 c3         1 5L2       0.116100
      5 C5          -0.0750    -1.1670     2.0940 c3         1 5L2       0.096100
      6 C6          -0.6610    -2.4080     2.7690 c3         1 5L2       0.165400
      7 O2           2.0090    -1.1670    -0.6720 oh         1 5L2      -0.520800
      8 O3           3.4610    -0.0740     1.4550 oh         1 5L2      -0.584800
      9 O4           1.9280    -2.4140     1.5630 oh         1 5L2      -0.554800
     10 O6          -2.1100    -2.3080     2.7910 os         1 5L2      -0.432900
     11 CAZ         -2.7780    -3.2740     3.4420 c          1 5L2       0.633100
     12 OAG         -2.1790    -4.2190     3.8990 o          1 5L2      -0.545000
     13 CAB         -4.2730    -3.1770     3.6050 c3         1 5L2      -0.137100
     14 O5          -0.4740    -1.1380     0.7220 os         1 5L2      -0.323600
     15 SBN         -0.6050     1.5160     0.7930 s6         1 5L2       1.302900
     16 OAN         -1.9930     1.6900     0.5430 o          1 5L2      -0.585300
     17 OAO         -0.0750     1.6360     2.1060 o          1 5L2      -0.585300
     18 N            0.1200     2.7420    -0.0530 n3         1 5L2      -0.809500
     19 CD1         -0.3520     3.2960    -1.3340 c3         1 5L2       0.241800
     20 CG           0.9100     3.9140    -1.9870 c3         1 5L2       0.102100
     21 OD2          1.6960     2.9090    -2.6320 os         1 5L2      -0.508500
     22 SBM          1.4190     2.7680    -4.1220 s6         1 5L2       1.495400
     23 OAL          2.1770     1.6520    -4.5670 o          1 5L2      -0.521300
     24 OAM          0.0100     2.8630    -4.2790 o          1 5L2      -0.521300
     25 NAF          2.0630     4.0980    -4.8690 nz         1 5L2      -0.833500
     26 CB           1.6500     4.4910    -0.7520 c3         1 5L2      -0.069400
     27 CA           1.3350     3.4620     0.3540 c3         1 5L2       0.204500
     28 C            1.0990     4.1670     1.6640 c          1 5L2       0.604100
     29 O            0.0250     4.0830     2.2110 o          1 5L2      -0.487000
     30 OAS          2.0830     4.8900     2.2230 os         1 5L2      -0.435900
     31 CAA          1.7840     5.5440     3.4860 c3         1 5L2       0.139700
     32 H1          -0.3590    -0.0470    -1.0210 h2         1 5L2       0.118700
     33 H2           1.8910     0.8880    -0.5060 h1         1 5L2       0.019700
     34 H3           1.7100     0.9080     1.9410 h1         1 5L2       0.071700
     35 H4           1.7580    -1.1890     3.2160 h1         1 5L2       0.051700
     36 H5          -0.4350    -0.2740     2.5920 h1         1 5L2       0.074700
     37 H6          -0.3680    -3.2920     2.2160 h1         1 5L2       0.074700
     38 H7          -0.2890    -2.4760     3.7840 h1         1 5L2       0.074700
     39 H8           2.3960    -0.9190    -1.4950 ho         1 5L2       0.391000
     40 H9           3.7930     0.3460     2.2320 ho         1 5L2       0.407000
     41 H10          2.5060    -2.8630     2.1570 ho         1 5L2       0.406000
     42 H11         -4.5160    -2.3060     4.2020 hc         1 5L2       0.073033
     43 H12         -4.6400    -4.0680     4.1000 hc         1 5L2       0.073033
     44 H13         -4.7370    -3.0880     2.6300 hc         1 5L2       0.073033
     45 H16         -0.7510     2.5070    -1.9600 h1         1 5L2       0.091700
     46 H17          0.6380     4.7050    -2.6760 h1         1 5L2       0.050700
     47 H18          2.2320     3.8900    -5.8330 hn         1 5L2       0.498467
     48 H19          1.4200     4.8630    -4.8000 hn         1 5L2       0.498467
     49 H20          1.2530     5.4650    -0.4910 hc         1 5L2       0.090700
     50 H21          2.7160     4.5410    -0.9360 hc         1 5L2       0.090700
     51 H22          2.1590     2.7640     0.4490 h1         1 5L2       0.093700
     52 H23          0.9510     6.2240     3.3520 h1         1 5L2       0.061033
     53 H24          1.5250     4.7970     4.2270 h1         1 5L2       0.061033
     54 H25          2.6530     6.0980     3.8200 h1         1 5L2       0.061033
     55 H14         -1.0980     4.0620    -1.1600 h1         1 5L2       0.091700
     56 HAF3         2.9190     4.3530    -4.4170 hn         1 5L2       0.498467
@<TRIPOS>BOND
     1     1     2 1
     2     1    14 1
     3     1    15 1
     4     2     3 1
     5     2     7 1
     6     3     4 1
     7     3     8 1
     8     4     5 1
     9     4     9 1
    10     5     6 1
    11     5    14 1
    12     6    10 1
    13    10    11 1
    14    11    12 2
    15    11    13 1
    16    15    16 2
    17    15    17 2
    18    15    18 1
    19    18    19 1
    20    18    27 1
    21    19    20 1
    22    20    21 1
    23    20    26 1
    24    21    22 1
    25    22    23 2
    26    22    24 2
    27    22    25 1
    28    26    27 1
    29    27    28 1
    30    28    29 2
    31    28    30 1
    32    30    31 1
    33     1    32 1
    34     2    33 1
    35     3    34 1
    36     4    35 1
    37     5    36 1
    38     6    37 1
    39     6    38 1
    40     7    39 1
    41     8    40 1
    42     9    41 1
    43    13    42 1
    44    13    43 1
    45    13    44 1
    46    19    45 1
    47    20    46 1
    48    25    47 1
    49    25    48 1
    50    26    49 1
    51    26    50 1
    52    27    51 1
    53    31    52 1
    54    31    53 1
    55    31    54 1
    56    19    55 1
    57    56    25 1
@<TRIPOS>SUBSTRUCTURE
     1 5L2         1 TEMP              0 ****  ****    0 ROOT
