@<TRIPOS>MOLECULE
molecule
   53    54     1     0     0
SMALL
bcc


@<TRIPOS>ATOM
      1 C1           0.0000     0.0000     0.0000 c3         1 5L3       0.011900
      2 O2           2.0160    -1.1880    -0.6820 os         1 5L3      -0.417900
      3 C5          -0.0770    -1.1660     2.0940 c3         1 5L3       0.127100
      4 CBI          3.7630    -2.2780    -2.0420 c3         1 5L3      -0.131100
      5 CBE          3.1950    -1.0870    -1.3130 c          1 5L3       0.634100
      6 OBH          3.8030    -0.0430    -1.2980 o          1 5L3      -0.527000
      7 C2           1.5310     0.0000     0.0000 c3         1 5L3       0.121100
      8 C3           2.0330     0.0000     1.4480 c3         1 5L3       0.136100
      9 O3           3.4610    -0.0740     1.4580 oh         1 5L3      -0.578800
     10 C4           1.4510    -1.2130     2.1790 c3         1 5L3       0.107100
     11 O4           1.8550    -1.1830     3.5500 oh         1 5L3      -0.604800
     12 C6          -0.5880     0.0910     2.8010 c3         1 5L3       0.104400
     13 O6          -2.0170     0.0760     2.8240 oh         1 5L3      -0.627800
     14 O5          -0.4760    -1.1370     0.7220 os         1 5L3      -0.372600
     15 SAG         -0.6050    -0.0730    -1.7090 s6         1 5L3       1.343900
     16 OAH         -0.3090     1.1360    -2.3950 o          1 5L3      -0.591800
     17 OAJ         -0.3090    -1.3360    -2.2890 o          1 5L3      -0.591800
     18 NAB         -2.2550    -0.0670    -1.5640 n3         1 5L3      -0.815500
     19 CAC         -3.0000     1.2000    -1.5530 c3         1 5L3       0.246800
     20 CAD         -3.8860     1.2380    -0.3030 c3         1 5L3      -0.112900
     21 CAA         -3.0010    -1.3270    -1.4510 c3         1 5L3       0.246800
     22 CAF         -3.8870    -1.2650    -0.2020 c3         1 5L3      -0.112900
     23 CAE         -4.7690    -0.0110    -0.2690 c3         1 5L3       0.152100
     24 OAK         -5.6190     0.0380     0.8780 os         1 5L3      -0.503500
     25 SAL         -7.0140     0.5770     0.5930 s6         1 5L3       1.494400
     26 OAN         -7.6600     0.7060     1.8510 o          1 5L3      -0.531300
     27 OAO         -6.8480     1.6600    -0.3110 o          1 5L3      -0.531300
     28 NAM         -7.8330    -0.6020    -0.2350 nz         1 5L3      -0.831500
     29 H1          -0.3590     0.9040     0.4770 h2         1 5L3       0.091700
     30 H2          -0.4900    -2.0470     2.5700 h1         1 5L3       0.102700
     31 H3           3.5010    -2.2170    -3.0910 hc         1 5L3       0.074700
     32 H4           3.3540    -3.1880    -1.6200 hc         1 5L3       0.074700
     33 H5           4.8410    -2.2850    -1.9390 hc         1 5L3       0.074700
     34 H6           1.8920     0.8870    -0.5070 h1         1 5L3       0.099700
     35 H7           1.7090     0.9080     1.9420 h1         1 5L3       0.052700
     36 H8           3.8080     0.6230     1.9890 ho         1 5L3       0.421000
     37 H9           1.8100    -2.1220     1.7110 h1         1 5L3       0.081700
     38 H10          2.2610    -2.0040     3.7760 ho         1 5L3       0.422000
     39 H11         -0.2450     0.9690     2.2680 h1         1 5L3       0.048200
     40 H12         -0.2100     0.1140     3.8160 h1         1 5L3       0.048200
     41 H13         -2.3230     0.5030     3.6070 ho         1 5L3       0.411000
     42 H16         -2.3040     2.0300    -1.5290 h1         1 5L3       0.076450
     43 H17         -3.6200     1.2630    -2.4390 h1         1 5L3       0.076450
     44 H18         -4.5120     2.1220    -0.3330 hc         1 5L3       0.083450
     45 H19         -3.2600     1.2620     0.5810 hc         1 5L3       0.083450
     46 H20         -2.3060    -2.1530    -1.3610 h1         1 5L3       0.076450
     47 H21         -4.5150    -2.1470    -0.1620 hc         1 5L3       0.083450
     48 H22         -3.2610    -1.2190     0.6810 hc         1 5L3       0.083450
     49 H23         -5.3720    -0.0470    -1.1680 h1         1 5L3       0.024700
     50 H24         -8.8170    -0.4340    -0.1660 hn         1 5L3       0.496133
     51 H25         -7.5580    -0.5870    -1.1970 hn         1 5L3       0.496133
     52 H14         -3.6210    -1.4610    -2.3290 h1         1 5L3       0.076450
     53 HAM3        -7.6090    -1.4980     0.1510 hn         1 5L3       0.496133
@<TRIPOS>BOND
     1     1     7 1
     2     1    14 1
     3     1    15 1
     4     2     5 1
     5     2     7 1
     6     3    10 1
     7     3    12 1
     8     3    14 1
     9     4     5 1
    10     5     6 2
    11     7     8 1
    12     8     9 1
    13     8    10 1
    14    10    11 1
    15    12    13 1
    16    15    16 2
    17    15    17 2
    18    15    18 1
    19    18    19 1
    20    18    21 1
    21    19    20 1
    22    20    23 1
    23    21    22 1
    24    22    23 1
    25    23    24 1
    26    24    25 1
    27    25    26 2
    28    25    27 2
    29    25    28 1
    30     1    29 1
    31     3    30 1
    32     4    31 1
    33     4    32 1
    34     4    33 1
    35     7    34 1
    36     8    35 1
    37     9    36 1
    38    10    37 1
    39    11    38 1
    40    12    39 1
    41    12    40 1
    42    13    41 1
    43    19    42 1
    44    19    43 1
    45    20    44 1
    46    20    45 1
    47    21    46 1
    48    22    47 1
    49    22    48 1
    50    23    49 1
    51    28    50 1
    52    28    51 1
    53    21    52 1
    54    53    28 1
@<TRIPOS>SUBSTRUCTURE
     1 5L3         1 TEMP              0 ****  ****    0 ROOT
