@<TRIPOS>MOLECULE
molecule
   55    58     1     0     0
SMALL
bcc


@<TRIPOS>ATOM
      1 C13          0.0000     0.0000     0.0000 ca         1 5L4      -0.125000
      2 C18          6.3540     0.6060    -3.5330 ca         1 5L4      -0.044700
      3 C17         -2.2020     0.0060     1.1880 c3         1 5L4      -0.037100
      4 C16          1.3680     0.0120     2.4110 ca         1 5L4      -0.107500
      5 C15         -0.0110     0.0120     2.3990 ca         1 5L4      -0.125000
      6 C19          7.5680     1.2730    -3.5130 ca         1 5L4       0.421200
      7 C21          7.8080     1.0460    -5.7970 ca         1 5L4       0.408200
      8 C22          6.6090     0.3720    -5.9040 ca         1 5L4      -0.273300
      9 C23          5.8560     0.1400    -4.7560 ca         1 5L4       0.084600
     10 C24         -2.7120     1.4480     1.1790 c3         1 5L4       0.144400
     11 C11          2.0740     0.0000     1.2080 cp         1 5L4      -0.135500
     12 C12          1.3800     0.0000     0.0000 ca         1 5L4      -0.107500
     13 C27          3.6870     0.1750    -5.6880 c3         1 5L4       0.128800
     14 C1           4.2490    -0.0930     2.4270 ca         1 5L4       0.381900
     15 C2           3.5570     0.0000     1.2160 cp         1 5L4       0.293500
     16 N3           4.2250     0.0870     0.0730 nb         1 5L4      -0.614000
     17 C4           5.5530     0.0870     0.0800 ca         1 5L4       0.181500
     18 C5           6.2450    -0.0060     1.3000 ca         1 5L4       0.633900
     19 N6           5.5680    -0.0950     2.4400 nb         1 5L4      -0.724000
     20 N7           7.6270    -0.0070     1.3140 nv         1 5L4      -0.987500
     21 C8           6.3000     0.1840    -1.1900 c          1 5L4       0.592600
     22 O9           7.5110     0.0750    -1.1930 o          1 5L4      -0.618100
     23 N10          5.6400     0.3960    -2.3460 ns         1 5L4      -0.441100
     24 C14         -0.6950     0.0060     1.1960 ca         1 5L4      -0.079300
     25 N20          8.2480     1.4700    -4.6280 nb         1 5L4      -0.675000
     26 O25         -4.1400     1.4490     1.1730 oh         1 5L4      -0.613800
     27 N26          4.6390    -0.5360    -4.8210 nh         1 5L4      -0.620000
     28 C28          2.3490    -0.5690    -5.6850 c3         1 5L4       0.137900
     29 O29          2.5590    -1.9200    -6.1040 os         1 5L4      -0.422600
     30 C30          3.4790    -2.6420    -5.2810 c3         1 5L4       0.137900
     31 C31          4.8300    -1.9190    -5.2810 c3         1 5L4       0.128800
     32 H37         -0.5400    -0.0000    -0.9390 ha         1 5L4       0.135000
     33 H41         -2.5670    -0.5010     2.0730 hc         1 5L4       0.062200
     34 H40         -2.5580    -0.5090     0.3040 hc         1 5L4       0.062200
     35 H39          1.9020     0.0140     3.3530 ha         1 5L4       0.139000
     36 H38         -0.5600     0.0190     3.3330 ha         1 5L4       0.135000
     37 H42          7.9640     1.6380    -2.5730 h4         1 5L4       0.049100
     38 H43          8.3980     1.2290    -6.6870 h4         1 5L4       0.024100
     39 H44          6.2570     0.0270    -6.8690 ha         1 5L4       0.143000
     40 H45         -2.3550     1.9630     2.0630 h1         1 5L4       0.023200
     41 H46         -2.3470     1.9550     0.2940 h1         1 5L4       0.023200
     42 H36          1.9220    -0.0070    -0.9380 ha         1 5L4       0.139000
     43 H48          4.0760     0.2110    -6.6980 h1         1 5L4       0.050450
     44 H32          3.7000    -0.1660     3.3580 h4         1 5L4       0.037100
     45 H34          8.1350     0.5320     0.6410 hn         1 5L4       0.457300
     46 H33          8.1190    -0.5010     2.0320 hn         1 5L4       0.457300
     47 H35          4.6410     0.4530    -2.3470 hn         1 5L4       0.355500
     48 H47         -4.4550     2.3300     1.2870 ho         1 5L4       0.404000
     49 H50          1.9350    -0.5620    -4.6840 h1         1 5L4       0.055950
     50 H51          1.6640    -0.0810    -6.3680 h1         1 5L4       0.055950
     51 H53          3.6060    -3.6430    -5.6750 h1         1 5L4       0.055950
     52 H52          3.0960    -2.6910    -4.2690 h1         1 5L4       0.055950
     53 H55          5.5120    -2.4300    -4.6120 h1         1 5L4       0.050450
     54 H54          5.2360    -1.9130    -6.2850 h1         1 5L4       0.050450
     55 H49          3.5400     1.1810    -5.3140 h1         1 5L4       0.050450
@<TRIPOS>BOND
     1    26    10 1
     2    10     3 1
     3     3    24 1
     4    24     5 ar
     5    24     1 ar
     6     5     4 ar
     7     1    12 ar
     8     4    11 ar
     9    12    11 ar
    10    30    29 1
    11    30    31 1
    12    11    15 1
    13    29    28 1
    14    31    27 1
    15    28    13 1
    16    15    14 ar
    17    15    16 ar
    18    14    19 ar
    19    16    17 ar
    20    27    13 1
    21    27     9 1
    22    19    18 ar
    23     9     8 ar
    24     9     2 ar
    25    17    18 ar
    26    17    21 1
    27    23     2 1
    28    23    21 1
    29     8     7 ar
    30    18    20 1
    31     2     6 ar
    32    21    22 2
    33     7    25 ar
    34     6    25 ar
    35     1    32 1
    36     3    33 1
    37     3    34 1
    38     4    35 1
    39     5    36 1
    40     6    37 1
    41     7    38 1
    42     8    39 1
    43    10    40 1
    44    10    41 1
    45    12    42 1
    46    13    55 1
    47    13    43 1
    48    14    44 1
    49    20    45 1
    50    20    46 1
    51    23    47 1
    52    26    48 1
    53    28    49 1
    54    28    50 1
    55    30    51 1
    56    30    52 1
    57    31    53 1
    58    31    54 1
@<TRIPOS>SUBSTRUCTURE
     1 5L4         1 TEMP              0 ****  ****    0 ROOT
