@<TRIPOS>MOLECULE
5L4
   55    58     1     0     0
SMALL
bcc


@<TRIPOS>ATOM
      1 C13          0.0000     0.0000     0.0000 ca         1 5L4      -0.097000
      2 C18          6.3540     0.6060    -3.5330 ca         1 5L4      -0.188700
      3 C17         -2.2020     0.0060     1.1880 c3         1 5L4       0.019900
      4 C16          1.3680     0.0120     2.4110 ca         1 5L4      -0.088000
      5 C15         -0.0110     0.0120     2.3990 ca         1 5L4      -0.097000
      6 C19          7.5680     1.2730    -3.5130 ca         1 5L4       0.404200
      7 C21          7.8080     1.0460    -5.7970 ca         1 5L4       0.399200
      8 C22          6.6090     0.3720    -5.9040 ca         1 5L4      -0.239300
      9 C23          5.8560     0.1400    -4.7560 ca         1 5L4       0.007600
     10 C24         -2.7120     1.4480     1.1790 c3         1 5L4       0.228400
     11 C11          2.0740     0.0000     1.2080 cp         1 5L4      -0.136500
     12 C12          1.3800     0.0000     0.0000 ca         1 5L4      -0.088000
     13 C27          3.6870     0.1750    -5.6880 c3         1 5L4       0.106300
     14 C1           4.2490    -0.0930     2.4270 ca         1 5L4       0.376900
     15 C2           3.5570     0.0000     1.2160 cp         1 5L4       0.237500
     16 N3           4.2250     0.0870     0.0730 nb         1 5L4      -0.483000
     17 C4           5.5530     0.0870     0.0800 ca         1 5L4       0.104500
     18 C5           6.2450    -0.0060     1.3000 ca         1 5L4       0.450900
     19 N6           5.5680    -0.0950     2.4400 nb         1 5L4      -0.634000
     20 N7           7.6270    -0.0070     1.3140 nv         1 5L4      -0.499500
     21 C8           6.3000     0.1840    -1.1900 c          1 5L4       0.495600
     22 O9           7.5110     0.0750    -1.1930 o          1 5L4      -0.669100
     23 N10          5.6400     0.3960    -2.3460 ns         1 5L4       0.011900
     24 C14         -0.6950     0.0060     1.1960 ca         1 5L4      -0.086300
     25 N20          8.2480     1.4700    -4.6280 nb         1 5L4      -0.565000
     26 O25         -4.1400     1.4490     1.1730 oh         1 5L4      -0.595800
     27 N26          4.6390    -0.5360    -4.8210 nh         1 5L4      -0.402000
     28 C28          2.3490    -0.5690    -5.6850 c3         1 5L4       0.213900
     29 O29          2.5590    -1.9200    -6.1040 os         1 5L4      -0.409600
     30 C30          3.4790    -2.6420    -5.2810 c3         1 5L4       0.213900
     31 C31          4.8300    -1.9190    -5.2810 c3         1 5L4       0.106300
     32 H37         -0.5400    -0.0000    -0.9390 ha         1 5L4       0.108000
     33 H41         -2.5670    -0.5010     2.0730 hc         1 5L4       0.027700
     34 H40         -2.5580    -0.5090     0.3040 hc         1 5L4       0.027700
     35 H39          1.9020     0.0140     3.3530 ha         1 5L4       0.113500
     36 H38         -0.5600     0.0190     3.3330 ha         1 5L4       0.108000
     37 H42          7.9640     1.6380    -2.5730 h4         1 5L4       0.012100
     38 H43          8.3980     1.2290    -6.6870 h4         1 5L4      -0.019900
     39 H44          6.2570     0.0270    -6.8690 ha         1 5L4       0.122000
     40 H45         -2.3550     1.9630     2.0630 h1         1 5L4      -0.013800
     41 H46         -2.3470     1.9550     0.2940 h1         1 5L4      -0.013800
     42 H36          1.9220    -0.0070    -0.9380 ha         1 5L4       0.113500
     43 H48          4.0760     0.2110    -6.6980 h1         1 5L4       0.023450
     44 H32          3.7000    -0.1660     3.3580 h4         1 5L4      -0.005900
     45 H34          8.1350     0.5320     0.6410 hn         1 5L4       0.292300
     46 H33          8.1190    -0.5010     2.0320 hn         1 5L4       0.292300
     47 H35          4.6410     0.4530    -2.3470 hn         1 5L4       0.195500
     48 H47         -4.4550     2.3300     1.2870 ho         1 5L4       0.391000
     49 H50          1.9350    -0.5620    -4.6840 h1         1 5L4       0.014450
     50 H51          1.6640    -0.0810    -6.3680 h1         1 5L4       0.014450
     51 H53          3.6060    -3.6430    -5.6750 h1         1 5L4       0.014450
     52 H52          3.0960    -2.6910    -4.2690 h1         1 5L4       0.014450
     53 H55          5.5120    -2.4300    -4.6120 h1         1 5L4       0.023450
     54 H54          5.2360    -1.9130    -6.2850 h1         1 5L4       0.023450
     55 H49          3.5400     1.1810    -5.3140 h1         1 5L4       0.023450
@<TRIPOS>BOND
     1     1    12 ar  
     2     1    24 ar  
     3     1    32 1   
     4     2     6 ar  
     5     2     9 ar  
     6     2    23 1   
     7     3    10 1   
     8     3    24 1   
     9     3    33 1   
    10     3    34 1   
    11     4     5 ar  
    12     4    11 ar  
    13     4    35 1   
    14     5    24 ar  
    15     5    36 1   
    16     6    25 ar  
    17     6    37 1   
    18     7     8 ar  
    19     7    25 ar  
    20     7    38 1   
    21     8     9 ar  
    22     8    39 1   
    23     9    27 1   
    24    10    26 1   
    25    10    40 1   
    26    10    41 1   
    27    11    12 ar  
    28    11    15 1   
    29    12    42 1   
    30    13    27 1   
    31    13    28 1   
    32    13    43 1   
    33    13    55 1   
    34    14    15 ar  
    35    14    19 ar  
    36    14    44 1   
    37    15    16 ar  
    38    16    17 ar  
    39    17    18 ar  
    40    17    21 1   
    41    18    19 ar  
    42    18    20 1   
    43    20    45 1   
    44    20    46 1   
    45    21    22 2   
    46    21    23 1   
    47    23    47 1   
    48    26    48 1   
    49    27    31 1   
    50    28    29 1   
    51    28    49 1   
    52    28    50 1   
    53    29    30 1   
    54    30    31 1   
    55    30    51 1   
    56    30    52 1   
    57    31    53 1   
    58    31    54 1   
@<TRIPOS>SUBSTRUCTURE
     1 5L4         1 TEMP              0 ****  ****    0 ROOT
