@<TRIPOS>MOLECULE
5L6
   47    48     1     0     0
SMALL
bcc


@<TRIPOS>ATOM
      1 C4           0.0000     0.0000     0.0000 ca         1 5L6      -0.187000
      2 C5           1.3800     0.0000     0.0000 ca         1 5L6      -0.062500
      3 C6          -0.0050     0.0130     2.4060 ca         1 5L6      -0.187000
      4 N1           3.5750     1.4050     4.1680 n3         1 5L6      -0.521600
      5 C7           1.3740     0.0010     2.4120 ca         1 5L6      -0.062500
      6 C8           2.0750     0.0000     1.2070 ca         1 5L6      -0.035000
      7 N2           1.6530     2.7280     7.0880 nz         1 5L6       0.090400
      8 C9           3.5590    -0.0000     1.2110 cc         1 5L6      -0.074000
      9 C10          4.3680    -0.8360     0.5050 cd         1 5L6      -0.320300
     10 C11          5.6740     0.5350     1.6650 cd         1 5L6      -0.329300
     11 C12          4.4000     0.8730     1.9450 cc         1 5L6      -0.184300
     12 C13          3.9530     1.9770     2.8680 c3         1 5L6       0.261100
     13 C14          4.7430     0.8310     4.8500 c3         1 5L6       0.162100
     14 C15          2.9140     2.4080     5.0130 c3         1 5L6       0.145800
     15 C16          2.3160     1.7250     6.2430 c3         1 5L6      -0.071200
     16 N            5.6610    -0.5080     0.7860 na         1 5L6       0.424900
     17 C3          -0.6960     0.0070     1.2010 ca         1 5L6       0.160100
     18 O           -2.0540     0.0070     1.1990 os         1 5L6      -0.305900
     19 C1          -2.7010    -0.1210    -0.0700 c3         1 5L6       0.163100
     20 C2          -4.0970    -0.7120     0.1260 c3         1 5L6      -0.017100
     21 C           -2.8180     1.2580    -0.7230 c3         1 5L6      -0.017100
     22 H1          -0.5410    -0.0030    -0.9390 ha         1 5L6       0.116000
     23 H2           1.9220    -0.0030    -0.9380 ha         1 5L6       0.111500
     24 H3          -0.5500     0.0160     3.3420 ha         1 5L6       0.116000
     25 H5           1.9120     0.0030     3.3520 ha         1 5L6       0.111500
     26 H6           1.1150     2.2670     7.7950 hn         1 5L6       0.221800
     27 H7           1.0490     3.2930     6.5240 hn         1 5L6       0.221800
     28 H9           4.0420    -1.6250    -0.1620 h4         1 5L6       0.156000
     29 H10          6.5590     1.0120     2.0690 h4         1 5L6       0.146000
     30 H11          4.7630     2.6830     3.0060 h1         1 5L6       0.016200
     31 H12          3.1000     2.4860     2.4360 h1         1 5L6       0.016200
     32 H13          5.2460     0.1400     4.1850 h1         1 5L6       0.014033
     33 H14          4.4190     0.3050     5.7400 h1         1 5L6       0.014033
     34 H15          5.4250     1.6250     5.1290 h1         1 5L6       0.014033
     35 H16          2.1250     2.8910     4.4490 h1         1 5L6       0.023700
     36 H17          3.6390     3.1490     5.3280 h1         1 5L6       0.023700
     37 H18          1.5910     0.9840     5.9280 hx         1 5L6       0.095200
     38 H19          3.1040     1.2420     6.8070 hx         1 5L6       0.095200
     39 H20          6.4700    -0.9590     0.4070 hn         1 5L6       0.116700
     40 H21         -2.1180    -0.7740    -0.7080 h1         1 5L6       0.023700
     41 H22         -4.0120    -1.7050     0.5510 hc         1 5L6       0.015200
     42 H23         -4.6020    -0.7710    -0.8300 hc         1 5L6       0.015200
     43 H24         -4.6660    -0.0800     0.7970 hc         1 5L6       0.015200
     44 H25         -3.8530     1.4480    -0.9820 hc         1 5L6       0.015200
     45 H26         -2.4750     2.0170    -0.0300 hc         1 5L6       0.015200
     46 H27         -2.2110     1.2870    -1.6190 hc         1 5L6       0.015200
     47 H231         2.3450     3.3040     7.5260 hn         1 5L6       0.221800
@<TRIPOS>BOND
     1     1     2 ar  
     2     1    17 ar  
     3     1    22 1   
     4     2     6 ar  
     5     2    23 1   
     6     3     5 ar  
     7     3    17 ar  
     8     3    24 1   
     9     4    12 1   
    10     4    13 1   
    11     4    14 1   
    12     5     6 ar  
    13     5    25 1   
    14     6     8 1   
    15     7    15 1   
    16     7    26 1   
    17     7    27 1   
    18     7    47 1   
    19     8     9 2   
    20     8    11 1   
    21     9    16 1   
    22     9    28 1   
    23    10    11 2   
    24    10    16 1   
    25    10    29 1   
    26    11    12 1   
    27    12    30 1   
    28    12    31 1   
    29    13    32 1   
    30    13    33 1   
    31    13    34 1   
    32    14    15 1   
    33    14    35 1   
    34    14    36 1   
    35    15    37 1   
    36    15    38 1   
    37    16    39 1   
    38    17    18 1   
    39    18    19 1   
    40    19    20 1   
    41    19    21 1   
    42    19    40 1   
    43    20    41 1   
    44    20    42 1   
    45    20    43 1   
    46    21    44 1   
    47    21    45 1   
    48    21    46 1   
@<TRIPOS>SUBSTRUCTURE
     1 5L6         1 TEMP              0 ****  ****    0 ROOT
