@<TRIPOS>MOLECULE
molecule
   47    48     1     0     0
SMALL
bcc


@<TRIPOS>ATOM
      1 C4           0.0000     0.0000     0.0000 ca         1 5L6      -0.201000
      2 C5           1.3800     0.0000     0.0000 ca         1 5L6      -0.084500
      3 C6          -0.0050     0.0130     2.4060 ca         1 5L6      -0.201000
      4 N1           3.5750     1.4050     4.1680 n3         1 5L6      -0.714600
      5 C7           1.3740     0.0010     2.4120 ca         1 5L6      -0.084500
      6 C8           2.0750     0.0000     1.2070 ca         1 5L6      -0.047000
      7 N2           1.6530     2.7280     7.0880 nz         1 5L6      -0.810600
      8 C9           3.5590    -0.0000     1.2110 cc         1 5L6      -0.093000
      9 C10          4.3680    -0.8360     0.5050 cd         1 5L6      -0.137300
     10 C11          5.6740     0.5350     1.6650 cd         1 5L6      -0.147300
     11 C12          4.4000     0.8730     1.9450 cc         1 5L6      -0.175300
     12 C13          3.9530     1.9770     2.8680 c3         1 5L6       0.249100
     13 C14          4.7430     0.8310     4.8500 c3         1 5L6       0.136100
     14 C15          2.9140     2.4080     5.0130 c3         1 5L6       0.135800
     15 C16          2.3160     1.7250     6.2430 c3         1 5L6       0.086800
     16 N            5.6610    -0.5080     0.7860 na         1 5L6      -0.149100
     17 C3          -0.6960     0.0070     1.2010 ca         1 5L6       0.152100
     18 O           -2.0540     0.0070     1.1990 os         1 5L6      -0.331900
     19 C1          -2.7010    -0.1210    -0.0700 c3         1 5L6       0.135100
     20 C2          -4.0970    -0.7120     0.1260 c3         1 5L6      -0.105600
     21 C           -2.8180     1.2580    -0.7230 c3         1 5L6      -0.105600
     22 H1          -0.5410    -0.0030    -0.9390 ha         1 5L6       0.136000
     23 H2           1.9220    -0.0030    -0.9380 ha         1 5L6       0.140000
     24 H3          -0.5500     0.0160     3.3420 ha         1 5L6       0.136000
     25 H5           1.9120     0.0030     3.3520 ha         1 5L6       0.140000
     26 H6           1.1150     2.2670     7.7950 hn         1 5L6       0.456467
     27 H7           1.0490     3.2930     6.5240 hn         1 5L6       0.456467
     28 H9           4.0420    -1.6250    -0.1620 h4         1 5L6       0.181000
     29 H10          6.5590     1.0120     2.0690 h4         1 5L6       0.166000
     30 H11          4.7630     2.6830     3.0060 h1         1 5L6       0.048200
     31 H12          3.1000     2.4860     2.4360 h1         1 5L6       0.048200
     32 H13          5.2460     0.1400     4.1850 h1         1 5L6       0.045033
     33 H14          4.4190     0.3050     5.7400 h1         1 5L6       0.045033
     34 H15          5.4250     1.6250     5.1290 h1         1 5L6       0.045033
     35 H16          2.1250     2.8910     4.4490 h1         1 5L6       0.051200
     36 H17          3.6390     3.1490     5.3280 h1         1 5L6       0.051200
     37 H18          1.5910     0.9840     5.9280 hx         1 5L6       0.120200
     38 H19          3.1040     1.2420     6.8070 hx         1 5L6       0.120200
     39 H20          6.4700    -0.9590     0.4070 hn         1 5L6       0.307700
     40 H21         -2.1180    -0.7740    -0.7080 h1         1 5L6       0.050700
     41 H22         -4.0120    -1.7050     0.5510 hc         1 5L6       0.048700
     42 H23         -4.6020    -0.7710    -0.8300 hc         1 5L6       0.048700
     43 H24         -4.6660    -0.0800     0.7970 hc         1 5L6       0.048700
     44 H25         -3.8530     1.4480    -0.9820 hc         1 5L6       0.048700
     45 H26         -2.4750     2.0170    -0.0300 hc         1 5L6       0.048700
     46 H27         -2.2110     1.2870    -1.6190 hc         1 5L6       0.048700
     47 H231         2.3450     3.3040     7.5260 hn         1 5L6       0.456467
@<TRIPOS>BOND
     1    20    19 1   
     2    21    19 1   
     3    19    18 1   
     4    18    17 1   
     5    17     1 ar  
     6    17     3 ar  
     7     1     2 ar  
     8     3     5 ar  
     9     2     6 ar  
    10     5     6 ar  
    11     6     8 1   
    12     9     8 2   
    13     9    16 1   
    14     8    11 1   
    15    16    10 1   
    16    11    10 2   
    17    11    12 1   
    18    12     4 1   
    19    13     4 1   
    20     4    14 1   
    21    15    14 1   
    22    15     7 1   
    23     1    22 1   
    24     2    23 1   
    25     3    24 1   
    26     5    25 1   
    27     7    26 1   
    28     7    27 1   
    29     9    28 1   
    30    10    29 1   
    31    12    30 1   
    32    12    31 1   
    33    13    32 1   
    34    13    33 1   
    35    13    34 1   
    36    14    35 1   
    37    14    36 1   
    38    15    37 1   
    39    15    38 1   
    40    16    39 1   
    41    19    40 1   
    42    20    41 1   
    43    20    42 1   
    44    20    43 1   
    45    21    44 1   
    46    21    45 1   
    47    21    46 1   
    48    47     7 1   
@<TRIPOS>SUBSTRUCTURE
     1 5L6         1 TEMP              0 ****  ****    0 ROOT
