@<TRIPOS>MOLECULE
molecule
   45    47     1     0     0
SMALL
bcc


@<TRIPOS>ATOM
      1 C1           0.0000     0.0000     0.0000 ca         1 5L7       0.161100
      2 N1          -1.5430     0.3950    -5.8050 nb         1 5L7      -0.687000
      3 C2           1.3870     0.0000     0.0000 ca         1 5L7      -0.244000
      4 N2           3.2360     0.7680    -5.6670 nc         1 5L7      -0.507800
      5 C3           2.0800     0.0000     1.1960 ca         1 5L7      -0.063000
      6 C4           1.3920    -0.0010     2.3950 ca         1 5L7      -0.236000
      7 C5           0.0040    -0.0010     2.4000 ca         1 5L7       0.158100
      8 C6          -0.6910    -0.0010     1.2010 ca         1 5L7      -0.134300
      9 C7          -2.1990    -0.0020     1.2040 c3         1 5L7      -0.032800
     10 C8           0.0930     0.1400    -2.3720 c3         1 5L7       0.198700
     11 O2          -0.6720    -0.0030     3.5780 oh         1 5L7      -0.503100
     12 O3          -0.6790     0.0060    -1.1770 os         1 5L7      -0.338900
     13 C9          -1.0800     0.2470    -3.4900 ca         1 5L7      -0.189600
     14 C13         -0.6580     0.3050    -4.8180 ca         1 5L7       0.501800
     15 C12         -2.8380     0.4330    -5.5670 ca         1 5L7       0.428200
     16 C11         -3.3250     0.3810    -4.2740 ca         1 5L7      -0.258300
     17 C10         -2.4340     0.2860    -3.2140 ca         1 5L7      -0.060000
     18 C14          1.1360     0.2810    -5.0850 cc         1 5L7      -0.116800
     19 N3           1.9110     1.2230    -5.6940 na         1 5L7       0.079400
     20 C17          1.4420     2.4830    -6.2760 c3         1 5L7       0.080000
     21 C19          2.2160     3.6490    -5.6600 c3         1 5L7      -0.104600
     22 C18          1.6710     2.4630    -7.7900 c3         1 5L7      -0.104600
     23 C16          3.2620    -0.3950    -5.0680 cd         1 5L7       0.332200
     24 C15          1.9630    -0.7320    -4.6890 cd         1 5L7      -0.360300
     25 H1           1.9290     0.0010    -0.9380 ha         1 5L7       0.138000
     26 H2           3.1630     0.0000     1.1940 ha         1 5L7       0.134000
     27 H3           1.9360    -0.0010     3.3310 ha         1 5L7       0.133000
     28 H4          -2.5580    -0.1120     2.2200 hc         1 5L7       0.046700
     29 H5          -2.5610    -0.8260     0.6010 hc         1 5L7       0.046700
     30 H6          -2.5610     0.9330     0.7930 hc         1 5L7       0.046700
     31 H7           0.7030     1.0330    -2.3090 h1         1 5L7       0.062200
     32 H8           0.7320    -0.7270    -2.4880 h1         1 5L7       0.062200
     33 H9          -0.2190     0.5420     4.2010 ho         1 5L7       0.423000
     34 H10         -3.5310     0.5080    -6.3970 h4         1 5L7       0.029100
     35 H11         -4.3920     0.4140    -4.0910 ha         1 5L7       0.145000
     36 H12         -2.7920     0.2450    -2.1930 ha         1 5L7       0.162000
     37 H13          0.3840     2.6030    -6.0730 h1         1 5L7       0.074700
     38 H14          2.1090     3.6240    -4.5820 hc         1 5L7       0.049367
     39 H15          3.2640     3.5650    -5.9210 hc         1 5L7       0.049367
     40 H16          1.8230     4.5850    -6.0390 hc         1 5L7       0.049367
     41 H17          1.2570     1.5520    -8.2050 hc         1 5L7       0.049367
     42 H18          1.1840     3.3190    -8.2400 hc         1 5L7       0.049367
     43 H19          2.7340     2.5030    -7.9950 hc         1 5L7       0.049367
     44 H20          4.1470    -0.9970    -4.8940 h4         1 5L7       0.048100
     45 H21          1.6630    -1.6360    -4.1740 ha         1 5L7       0.156000
@<TRIPOS>BOND
     1    21    20 1
     2     4    23 2
     3     4    19 1
     4    20    19 1
     5    20    22 1
     6    23    24 1
     7    19    18 1
     8    24    18 2
     9    18    14 1
    10     9     8 1
    11    11     7 1
    12    14     2 ar
    13    14    13 ar
    14     2    15 ar
    15     8     7 ar
    16     8     1 ar
    17     7     6 ar
    18    12     1 1
    19    12    10 1
    20     1     3 ar
    21     6     5 ar
    22    10    13 1
    23     3     5 ar
    24    13    17 ar
    25    15    16 ar
    26    17    16 ar
    27     3    25 1
    28     5    26 1
    29     6    27 1
    30     9    28 1
    31     9    29 1
    32     9    30 1
    33    10    31 1
    34    10    32 1
    35    11    33 1
    36    15    34 1
    37    16    35 1
    38    17    36 1
    39    20    37 1
    40    21    38 1
    41    21    39 1
    42    21    40 1
    43    22    41 1
    44    22    42 1
    45    22    43 1
    46    23    44 1
    47    24    45 1
@<TRIPOS>SUBSTRUCTURE
     1 5L7         1 TEMP              0 ****  ****    0 ROOT
