@<TRIPOS>MOLECULE
molecule
   35    37     1     0     0
SMALL
bcc


@<TRIPOS>ATOM
      1 C1           0.0000     0.0000     0.0000 ca         1 5L8      -0.123000
      2 C2           1.3840     0.0000     0.0000 ca         1 5L8       0.038400
      3 C3           2.0740     0.0000     1.1990 ca         1 5L8      -0.072300
      4 C4           1.3810    -0.0010     2.3950 ca         1 5L8      -0.085000
      5 C5          -0.0000    -0.0010     2.3940 ca         1 5L8      -0.129000
      6 C6          -0.6910    -0.0000     1.1970 ca         1 5L8      -0.119000
      7 Cl1          2.2530     0.0000    -1.5030 cl         1 5L8      -0.125400
      8 C12          3.5810    -0.0000     1.2000 c3         1 5L8      -0.026100
      9 C15          4.0910     1.4100     1.5050 c3         1 5L8       0.185800
     10 O16          3.5480     1.8550     2.7500 oh         1 5L8      -0.562800
     11 C17          3.6550     2.3610     0.3890 cx         1 5L8      -0.050600
     12 C18          4.1570     2.0690    -1.0270 cx         1 5L8      -0.123400
     13 C19          4.7290     3.2510    -0.2410 cx         1 5L8      -0.123400
     14 Cl2          1.9980     3.0500     0.5580 cl         1 5L8      -0.123400
     15 C25          5.6190     1.3920     1.5920 c3         1 5L8       0.042300
     16 N28          6.0400     0.3860     2.5700 na         1 5L8      -0.069400
     17 N29          5.6650     0.3170     3.9210 nc         1 5L8      -0.525800
     18 C30          6.2640    -0.7300     4.4260 cd         1 5L8       0.558900
     19 N31          6.9880    -1.3160     3.4740 nd         1 5L8      -0.760000
     20 C32          6.8580    -0.6590     2.3500 cc         1 5L8       0.438400
     21 H1          -0.5420     0.0000    -0.9380 ha         1 5L8       0.141000
     22 H2           1.9210    -0.0010     3.3340 ha         1 5L8       0.155000
     23 H3          -0.5420    -0.0010     3.3310 ha         1 5L8       0.134000
     24 H4          -1.7740    -0.0000     1.1970 ha         1 5L8       0.134000
     25 H5           3.9410    -0.6860     1.9570 hc         1 5L8       0.071200
     26 H6           3.9420    -0.3130     0.2280 hc         1 5L8       0.071200
     27 H7           3.7570     2.7650     2.8770 ho         1 5L8       0.410000
     28 H8           3.4750     2.3260    -1.8280 hc         1 5L8       0.087700
     29 H9           4.8120     1.2110    -1.1230 hc         1 5L8       0.087700
     30 H10          4.3960     4.2300    -0.5620 hc         1 5L8       0.087700
     31 H11          5.7330     3.1150     0.1430 hc         1 5L8       0.087700
     32 H12          5.9750     2.3670     1.9010 h1         1 5L8       0.069700
     33 H13          6.0330     1.1480     0.6210 h1         1 5L8       0.069700
     34 H14          6.1860    -1.0660     5.4540 h5         1 5L8       0.081100
     35 H15          7.3330    -0.9080     1.4090 h5         1 5L8       0.068100
@<TRIPOS>BOND
     1     1     6 ar
     2     1     2 ar
     3     6     5 ar
     4     7     2 1
     5     2     3 ar
     6     5     4 ar
     7     3     4 ar
     8     3     8 1
     9     8     9 1
    10    14    11 1
    11     9    11 1
    12     9    15 1
    13     9    10 1
    14    17    18 2
    15    17    16 1
    16    13    11 1
    17    13    12 1
    18    11    12 1
    19    15    16 1
    20    18    19 1
    21    16    20 1
    22    19    20 2
    23     1    21 1
    24     4    22 1
    25     5    23 1
    26     6    24 1
    27     8    25 1
    28     8    26 1
    29    10    27 1
    30    12    28 1
    31    12    29 1
    32    13    30 1
    33    13    31 1
    34    15    32 1
    35    15    33 1
    36    18    34 1
    37    20    35 1
@<TRIPOS>SUBSTRUCTURE
     1 5L8         1 TEMP              0 ****  ****    0 ROOT
