@<TRIPOS>MOLECULE
molecule
   35    37     1     0     0
SMALL
bcc


@<TRIPOS>ATOM
      1 C5           0.0000     0.0000     0.0000 ca         1 5L9      -0.134000
      2 C6           1.3830     0.0000     0.0000 ca         1 5L9      -0.123000
      3 C2           1.3830     0.0020     2.3950 ca         1 5L9       0.049400
      4 C4          -0.6910     0.0080     1.1970 ca         1 5L9      -0.120000
      5 C1           2.0740     0.0000     1.1970 ca         1 5L9      -0.129000
      6 C3           0.0000     0.0130     2.3950 ca         1 5L9      -0.073300
      7 Cl1          2.2510     0.0010     3.8980 cl         1 5L9      -0.096400
      8 C12         -0.7540     0.0140     3.6990 c3         1 5L9      -0.036100
      9 C15         -0.8880     1.4500     4.2100 c3         1 5L9       0.182800
     10 O16          0.4130     2.0080     4.4110 oh         1 5L9      -0.566800
     11 C17         -1.6490     2.2890     3.1810 cx         1 5L9      -0.042600
     12 C18         -0.8390     3.2750     2.3350 cx         1 5L9      -0.113400
     13 C19         -1.7630     3.7930     3.4410 cx         1 5L9      -0.113400
     14 Cl2         -3.0490     1.4700     2.3940 cl         1 5L9      -0.152400
     15 C25         -1.6530     1.4520     5.5350 c3         1 5L9       0.039300
     16 N28         -0.8900     0.7090     6.5400 na         1 5L9      -0.070400
     17 N29         -0.4600    -0.6260     6.4550 nc         1 5L9      -0.544800
     18 C30          0.1850    -0.8870     7.5620 cd         1 5L9       0.571900
     19 N31          0.1830     0.2010     8.3310 nd         1 5L9      -0.759000
     20 C32         -0.4560     1.1700     7.7260 cc         1 5L9       0.442400
     21 H1          -0.5420    -0.0020    -0.9380 ha         1 5L9       0.131000
     22 H2           1.9250    -0.0040    -0.9380 ha         1 5L9       0.132000
     23 H3          -1.7740     0.0120     1.1970 ha         1 5L9       0.148000
     24 H4           3.1570    -0.0050     1.1970 ha         1 5L9       0.141000
     25 H5          -0.2160    -0.5800     4.4280 hc         1 5L9       0.090700
     26 H6          -1.7400    -0.4080     3.5460 hc         1 5L9       0.090700
     27 H7           0.3700     2.6740     5.0760 ho         1 5L9       0.396000
     28 H8          -1.1940     3.4220     1.3220 hc         1 5L9       0.089950
     29 H9           0.2210     3.3180     2.5530 hc         1 5L9       0.089950
     30 H10         -2.6810     4.2570     3.1030 hc         1 5L9       0.089950
     31 H11         -1.2660     4.1520     4.3340 hc         1 5L9       0.089950
     32 H12         -1.7940     2.4720     5.8700 h1         1 5L9       0.075200
     33 H13         -2.6190     0.9810     5.3950 h1         1 5L9       0.075200
     34 H14          0.6440    -1.8350     7.8140 h5         1 5L9       0.081100
     35 H15         -0.6140     2.1690     8.1160 h5         1 5L9       0.067100
@<TRIPOS>BOND
     1    14    11 1
     2    12    11 1
     3    12    13 1
     4    11    13 1
     5    11     9 1
     6     8     9 1
     7     8     6 1
     8     7     3 1
     9     9    15 1
    10     9    10 1
    11    17    16 1
    12    17    18 2
    13    15    16 1
    14     6     3 ar
    15     6     4 ar
    16     3     5 ar
    17    16    20 1
    18    18    19 1
    19     4     1 ar
    20     5     2 ar
    21    20    19 2
    22     1     2 ar
    23     1    21 1
    24     2    22 1
    25     4    23 1
    26     5    24 1
    27     8    25 1
    28     8    26 1
    29    10    27 1
    30    12    28 1
    31    12    29 1
    32    13    30 1
    33    13    31 1
    34    15    32 1
    35    15    33 1
    36    18    34 1
    37    20    35 1
@<TRIPOS>SUBSTRUCTURE
     1 5L9         1 TEMP              0 ****  ****    0 ROOT
