@<TRIPOS>MOLECULE
molecule
   15    16     1     0     0
SMALL
bcc


@<TRIPOS>ATOM
      1 Cl1          0.0000     0.0000     0.0000 cl         1 5LA      -0.105400
      2 C02          1.7360     0.0000     0.0000 cc         1 5LA       0.040300
      3 C03          2.4810     0.0000     1.0890 cd         1 5LA      -0.070000
      4 C04          3.9160    -0.0000     0.8430 cd         1 5LA      -0.157000
      5 C05          5.1540    -0.0010     1.5420 cd         1 5LA      -0.170000
      6 C06          6.1520     0.0010     0.6150 cc         1 5LA      -0.079900
      7 C07          7.5860    -0.0000     0.9030 c          1 5LA       0.900200
      8 O08          8.4780     0.0010    -0.1090 o          1 5LA      -0.826800
      9 O09          7.9750    -0.0020     2.0560 o          1 5LA      -0.826800
     10 N10          5.5830     0.0010    -0.6440 na         1 5LA      -0.113100
     11 C11          4.2150     0.0020    -0.5070 cc         1 5LA      -0.019400
     12 S12          2.7270    -0.0060    -1.4470 ss         1 5LA      -0.186800
     13 H1           2.0580     0.0000     2.0870 ha         1 5LA       0.144000
     14 H2           5.2800     0.0930     2.6140 ha         1 5LA       0.159000
     15 H4           6.0830     0.0020    -1.5110 hn         1 5LA       0.312700
@<TRIPOS>BOND
     1     1     2 1
     2     2     3 2
     3     2    12 1
     4     3     4 1
     5    12    11 1
     6     4    11 2
     7     4     5 1
     8    11    10 1
     9     5     6 2
    10    10     6 1
    11     6     7 1
    12     7     9 1
    13     7     8 1
    14     3    13 1
    15     5    14 1
    16    10    15 1
@<TRIPOS>SUBSTRUCTURE
     1 5LA         1 TEMP              0 ****  ****    0 ROOT
