@<TRIPOS>MOLECULE
5LC
   49    50     1     0     0
SMALL
bcc


@<TRIPOS>ATOM
      1 C1           0.0000     0.0000     0.0000 ca         1 5LC      -0.107000
      2 C2           1.3850     0.0000     0.0000 ca         1 5LC       0.061100
      3 C3           2.0800     0.0000     1.2050 ca         1 5LC       0.175100
      4 C4           1.3720     0.0010     2.4140 ca         1 5LC      -0.173600
      5 C5          -0.0250     0.0010     2.3970 ca         1 5LC      -0.083000
      6 C6          -0.6990     0.0010     1.1940 ca         1 5LC      -0.110500
      7 C7           2.0980     0.0000     3.6980 c          1 5LC       0.597200
      8 N8           1.4130     0.0000     4.8590 ns         1 5LC      -0.212400
      9 O9           3.3140    -0.0010     3.7100 o          1 5LC      -0.625100
     10 C10          2.1340     0.0000     6.1340 c3         1 5LC       0.053000
     11 C11          1.1280     0.0010     7.2880 c3         1 5LC      -0.043400
     12 C12          1.8810     0.0010     8.6200 c3         1 5LC      -0.016400
     13 N14          0.6660     0.0020    12.2110 ns         1 5LC      -0.212400
     14 C15          1.1040     0.0010    13.4860 c          1 5LC       0.597200
     15 C16          0.1340     0.0030    14.5970 ca         1 5LC      -0.173600
     16 O17          2.2970     0.0010    13.7180 o          1 5LC      -0.625100
     17 C18          0.5850     0.0020    15.9240 ca         1 5LC       0.175100
     18 C19         -0.3380     0.0030    16.9650 ca         1 5LC       0.061100
     19 C20         -1.6950     0.0050    16.6860 ca         1 5LC      -0.107000
     20 C21         -2.1400     0.0050    15.3750 ca         1 5LC      -0.110500
     21 C22         -1.2380     0.0100    14.3330 ca         1 5LC      -0.083000
     22 O23          1.9150     0.0000    16.1920 oh         1 5LC      -0.461100
     23 O24          0.0910     0.0020    18.2550 oh         1 5LC      -0.493600
     24 C23          0.8760     0.0010     9.7740 c3         1 5LC      -0.043400
     25 O25          3.4370    -0.0010     1.2110 oh         1 5LC      -0.461100
     26 C13          1.6290     0.0010    11.1070 c3         1 5LC       0.053000
     27 O26          2.0660    -0.0010    -1.1770 oh         1 5LC      -0.493600
     28 H1          -0.5390     0.0000    -0.9400 ha         1 5LC       0.113000
     29 H6          -1.7830     0.0010     1.1840 ha         1 5LC       0.107000
     30 H26          2.0120    -0.8560    -1.5710 ho         1 5LC       0.409000
     31 H25          3.7540     0.8320     0.9040 ho         1 5LC       0.412000
     32 H5          -0.5790     0.0020     3.3280 ha         1 5LC       0.103000
     33 H8           0.4130    -0.0210     4.8490 hn         1 5LC       0.177500
     34 H101         2.7560    -0.8840     6.1980 h1         1 5LC       0.028700
     35 H102         2.7570     0.8850     6.1970 h1         1 5LC       0.028700
     36 H111         0.5070     0.8870     7.2250 hc         1 5LC       0.015700
     37 H112         0.5050    -0.8820     7.2250 hc         1 5LC       0.015700
     38 H121         2.5030    -0.8840     8.6830 hc         1 5LC       0.023200
     39 H122         2.5040     0.8850     8.6840 hc         1 5LC       0.023200
     40 H231         0.2540     0.8860     9.7100 hc         1 5LC       0.015700
     41 H232         0.2530    -0.8830     9.7100 hc         1 5LC       0.015700
     42 H14         -0.3160    -0.0180    12.0190 hn         1 5LC       0.177500
     43 H131         2.2500    -0.8850    11.1700 h1         1 5LC       0.028700
     44 H132         2.2520     0.8840    11.1700 h1         1 5LC       0.028700
     45 H22         -1.5930     0.0100    13.3100 ha         1 5LC       0.103000
     46 H20         -2.4120     0.0030    17.4980 ha         1 5LC       0.113000
     47 H24         -0.0410    -0.8520    18.6300 ho         1 5LC       0.409000
     48 H21         -3.2030     0.0090    15.1680 ha         1 5LC       0.107000
     49 H23          2.1640     0.8340    16.5560 ho         1 5LC       0.412000
@<TRIPOS>BOND
     1     1     2 ar  
     2     1     6 ar  
     3     1    28 1   
     4     2     3 ar  
     5     2    27 1   
     6     3     4 ar  
     7     3    25 1   
     8     4     5 ar  
     9     4     7 1   
    10     5     6 ar  
    11     5    32 1   
    12     6    29 1   
    13     7     8 1   
    14     7     9 2   
    15     8    10 1   
    16     8    33 1   
    17    10    11 1   
    18    10    34 1   
    19    10    35 1   
    20    11    12 1   
    21    11    36 1   
    22    11    37 1   
    23    12    24 1   
    24    12    38 1   
    25    12    39 1   
    26    13    14 1   
    27    13    26 1   
    28    13    42 1   
    29    14    15 1   
    30    14    16 2   
    31    15    17 ar  
    32    15    21 ar  
    33    17    18 ar  
    34    17    22 1   
    35    18    19 ar  
    36    18    23 1   
    37    19    20 ar  
    38    19    46 1   
    39    20    21 ar  
    40    20    48 1   
    41    21    45 1   
    42    22    49 1   
    43    23    47 1   
    44    24    26 1   
    45    24    40 1   
    46    24    41 1   
    47    25    31 1   
    48    26    43 1   
    49    26    44 1   
    50    27    30 1   
@<TRIPOS>SUBSTRUCTURE
     1 5LC         1 TEMP              0 ****  ****    0 ROOT
