@<TRIPOS>MOLECULE
molecule
   49    50     1     0     0
SMALL
bcc


@<TRIPOS>ATOM
      1 C1           0.0000     0.0000     0.0000 ca         1 5LC      -0.128000
      2 C2           1.3850     0.0000     0.0000 ca         1 5LC       0.055100
      3 C3           2.0800     0.0000     1.2050 ca         1 5LC       0.158100
      4 C4           1.3720     0.0010     2.4140 ca         1 5LC      -0.157600
      5 C5          -0.0250     0.0010     2.3970 ca         1 5LC      -0.102500
      6 C6          -0.6990     0.0010     1.1940 ca         1 5LC      -0.137000
      7 C7           2.0980     0.0000     3.6980 c          1 5LC       0.672200
      8 N8           1.4130     0.0000     4.8590 ns         1 5LC      -0.590900
      9 O9           3.3140    -0.0010     3.7100 o          1 5LC      -0.580600
     10 C10          2.1340     0.0000     6.1340 c3         1 5LC       0.115000
     11 C11          1.1280     0.0010     7.2880 c3         1 5LC      -0.101400
     12 C12          1.8810     0.0010     8.6200 c3         1 5LC      -0.074400
     13 N14          0.6660     0.0020    12.2110 ns         1 5LC      -0.590900
     14 C15          1.1040     0.0010    13.4860 c          1 5LC       0.672200
     15 C16          0.1340     0.0030    14.5970 ca         1 5LC      -0.157600
     16 O17          2.2970     0.0010    13.7180 o          1 5LC      -0.580600
     17 C18          0.5850     0.0020    15.9240 ca         1 5LC       0.158100
     18 C19         -0.3380     0.0030    16.9650 ca         1 5LC       0.055100
     19 C20         -1.6950     0.0050    16.6860 ca         1 5LC      -0.128000
     20 C21         -2.1400     0.0050    15.3750 ca         1 5LC      -0.137000
     21 C22         -1.2380     0.0100    14.3330 ca         1 5LC      -0.102500
     22 O23          1.9150     0.0000    16.1920 oh         1 5LC      -0.483100
     23 O24          0.0910     0.0020    18.2550 oh         1 5LC      -0.515100
     24 C23          0.8760     0.0010     9.7740 c3         1 5LC      -0.101400
     25 O25          3.4370    -0.0010     1.2110 oh         1 5LC      -0.483100
     26 C13          1.6290     0.0010    11.1070 c3         1 5LC       0.115000
     27 O26          2.0660    -0.0010    -1.1770 oh         1 5LC      -0.515100
     28 H1          -0.5390     0.0000    -0.9400 ha         1 5LC       0.143000
     29 H6          -1.7830     0.0010     1.1840 ha         1 5LC       0.137000
     30 H26          2.0120    -0.8560    -1.5710 ho         1 5LC       0.427000
     31 H25          3.7540     0.8320     0.9040 ho         1 5LC       0.434000
     32 H5          -0.5790     0.0020     3.3280 ha         1 5LC       0.129000
     33 H8           0.4130    -0.0210     4.8490 hn         1 5LC       0.310500
     34 H101         2.7560    -0.8840     6.1980 h1         1 5LC       0.056200
     35 H102         2.7570     0.8850     6.1970 h1         1 5LC       0.056200
     36 H111         0.5070     0.8870     7.2250 hc         1 5LC       0.044700
     37 H112         0.5050    -0.8820     7.2250 hc         1 5LC       0.044700
     38 H121         2.5030    -0.8840     8.6830 hc         1 5LC       0.052200
     39 H122         2.5040     0.8850     8.6840 hc         1 5LC       0.052200
     40 H231         0.2540     0.8860     9.7100 hc         1 5LC       0.044700
     41 H232         0.2530    -0.8830     9.7100 hc         1 5LC       0.044700
     42 H14         -0.3160    -0.0180    12.0190 hn         1 5LC       0.310500
     43 H131         2.2500    -0.8850    11.1700 h1         1 5LC       0.056200
     44 H132         2.2520     0.8840    11.1700 h1         1 5LC       0.056200
     45 H22         -1.5930     0.0100    13.3100 ha         1 5LC       0.129000
     46 H20         -2.4120     0.0030    17.4980 ha         1 5LC       0.143000
     47 H24         -0.0410    -0.8520    18.6300 ho         1 5LC       0.427000
     48 H21         -3.2030     0.0090    15.1680 ha         1 5LC       0.137000
     49 H23          2.1640     0.8340    16.5560 ho         1 5LC       0.434000
@<TRIPOS>BOND
     1     1     2 ar  
     2     1     6 ar  
     3     2     3 ar  
     4     2    27 1   
     5     3     4 ar  
     6     3    25 1   
     7     4     5 ar  
     8     4     7 1   
     9     5     6 ar  
    10     7     8 1   
    11     7     9 2   
    12     8    10 1   
    13    10    11 1   
    14    11    12 1   
    15    12    24 1   
    16    13    14 1   
    17    13    26 1   
    18    14    15 1   
    19    14    16 2   
    20    15    17 ar  
    21    15    21 ar  
    22    17    18 ar  
    23    17    22 1   
    24    18    19 ar  
    25    18    23 1   
    26    19    20 ar  
    27    20    21 ar  
    28    24    26 1   
    29    22    49 1   
    30     1    28 1   
    31     6    29 1   
    32    27    30 1   
    33    25    31 1   
    34     5    32 1   
    35     8    33 1   
    36    10    34 1   
    37    10    35 1   
    38    11    36 1   
    39    11    37 1   
    40    12    38 1   
    41    12    39 1   
    42    24    40 1   
    43    24    41 1   
    44    13    42 1   
    45    26    43 1   
    46    26    44 1   
    47    21    45 1   
    48    19    46 1   
    49    23    47 1   
    50    20    48 1   
@<TRIPOS>SUBSTRUCTURE
     1 5LC         1 TEMP              0 ****  ****    0 ROOT
