@<TRIPOS>MOLECULE
molecule
   21    21     1     0     0
SMALL
bcc


@<TRIPOS>ATOM
      1 O10          0.0000     0.0000     0.0000 o          1 5LD      -0.905833
      2 P9           1.6110     0.0000     0.0000 p5         1 5LD       1.034700
      3 O11          2.1480     0.0000     1.5180 o          1 5LD      -0.905833
      4 O12          2.1030    -1.2090    -0.6980 o          1 5LD      -0.905833
      5 C8           2.2190     1.4880    -0.8600 c3         1 5LD      -0.265600
      6 C7           1.8130     1.4260    -2.3340 c3         1 5LD       0.174100
      7 O13          2.4760     0.3290    -2.9650 oh         1 5LD      -0.551800
      8 C6           2.2140     2.7300    -3.0280 c3         1 5LD       0.003300
      9 N2           1.7200     2.7200    -4.4080 na         1 5LD      -0.022400
     10 N1           1.9670     1.7410    -5.3830 nc         1 5LD      -0.496800
     11 C5           1.3420     2.1200    -6.4660 cd         1 5LD       0.514900
     12 N4           0.7210     3.2740    -6.2260 nd         1 5LD      -0.812000
     13 C3           0.9360     3.6440    -4.9890 cc         1 5LD       0.410400
     14 H3           3.2980     1.5330    -0.7840 hc         1 5LD       0.021200
     15 H4           1.7870     2.3700    -0.4040 hc         1 5LD       0.021200
     16 H5           0.7410     1.2910    -2.4090 h1         1 5LD       0.104700
     17 H6           3.4080     0.4170    -2.8520 ho         1 5LD       0.378000
     18 H7           3.2930     2.8210    -3.0320 h1         1 5LD       0.048700
     19 H8           1.7820     3.5690    -2.4960 h1         1 5LD       0.048700
     20 H9           1.3320     1.5840    -7.4070 h5         1 5LD       0.054100
     21 H10          0.5540     4.5420    -4.5190 h5         1 5LD       0.053100
@<TRIPOS>BOND
     1     4     2 1   
     2     1     2 1   
     3     2     3 1   
     4     2     5 1   
     5     5     6 1   
     6     8     6 1   
     7     8     9 1   
     8     6     7 1   
     9    13     9 1   
    10    13    12 2   
    11     9    10 1   
    12    12    11 1   
    13    10    11 2   
    14     5    14 1   
    15     5    15 1   
    16     6    16 1   
    17     7    17 1   
    18     8    18 1   
    19     8    19 1   
    20    11    20 1   
    21    13    21 1   
@<TRIPOS>SUBSTRUCTURE
     1 5LD         1 TEMP              0 ****  ****    0 ROOT
