@<TRIPOS>MOLECULE
molecule
   27    27     1     0     0
SMALL
bcc


@<TRIPOS>ATOM
      1 C1           0.0000     0.0000     0.0000 ca         1 5LI      -0.130000
      2 C2           1.3790     0.0000     0.0000 ca         1 5LI      -0.099000
      3 C3          -0.6960    -0.0010     1.1960 ca         1 5LI      -0.091000
      4 C4           2.0750     0.0000     1.2110 ca         1 5LI      -0.136600
      5 C5          -0.0150    -0.0070     2.4000 ca         1 5LI       0.017400
      6 C6           1.3680    -0.0010     2.4150 ca         1 5LI       0.080400
      7 C7           8.3510    -1.1270    -1.0690 c          1 5LI       0.662900
      8 C8           3.5530     0.0010     1.2170 c          1 5LI       0.672700
      9 C9           5.6960     0.0010     0.0590 c3         1 5LI       0.092000
     10 C10          6.2130     0.0000    -1.3810 c3         1 5LI       0.092000
     11 N11          4.2310     0.0000     0.0520 ns         1 5LI      -0.590900
     12 N12          7.6780     0.0010    -1.3750 n          1 5LI      -0.384300
     13 O13          9.5640    -1.1270    -1.0640 o          1 5LI      -0.574100
     14 O14          4.1560     0.0010     2.2720 o          1 5LI      -0.575100
     15 O15          8.3870     1.1850    -1.6890 oh         1 5LI      -0.362100
     16 Cl16        -0.8970    -0.0060     3.8950 cl         1 5LI      -0.076400
     17 Cl17         2.2230    -0.0010     3.9250 cl         1 5LI      -0.031400
     18 H1          -0.5400     0.0020    -0.9390 ha         1 5LI       0.143000
     19 H2           1.9220     0.0000    -0.9380 ha         1 5LI       0.131000
     20 H3          -1.7790    -0.0030     1.1900 ha         1 5LI       0.153000
     21 H7           7.8090    -2.0450    -0.8730 h5         1 5LI       0.044200
     22 H9           6.0550    -0.8840     0.5720 h1         1 5LI       0.068200
     23 H9A          6.0550     0.8850     0.5710 h1         1 5LI       0.068200
     24 H10          5.8550     0.8850    -1.8940 h1         1 5LI       0.057700
     25 H10A         5.8550    -0.8840    -1.8940 h1         1 5LI       0.057700
     26 HN11         3.7350     0.0420    -0.8160 hn         1 5LI       0.310500
     27 HO15         8.6030     1.1880    -2.6070 ho         1 5LI       0.399000
@<TRIPOS>BOND
     1     2     1 ar  
     2     1     3 ar  
     3     1    18 1   
     4     4     2 ar  
     5     2    19 1   
     6     5     3 ar  
     7     3    20 1   
     8     8     4 1   
     9     4     6 ar  
    10     6     5 ar  
    11     5    16 1   
    12    17     6 1   
    13    12     7 1   
    14     7    13 2   
    15     7    21 1   
    16    14     8 2   
    17    11     8 1   
    18    10     9 1   
    19     9    11 1   
    20     9    22 1   
    21     9    23 1   
    22    10    12 1   
    23    10    24 1   
    24    10    25 1   
    25    11    26 1   
    26    15    12 1   
    27    15    27 1   
@<TRIPOS>SUBSTRUCTURE
     1 5LI         1 TEMP              0 ****  ****    0 ROOT
