@<TRIPOS>MOLECULE
5LK
   57    61     1     0     0
SMALL
bcc


@<TRIPOS>ATOM
      1 N1           0.0000     0.0000     0.0000 na         1 5LK       0.346400
      2 N2           1.3890     0.0000     0.0000 nc         1 5LK      -0.592800
      3 C3           1.8150     0.0000     1.2390 cd         1 5LK       0.439200
      4 C5           0.6980    -0.0010     2.1000 cd         1 5LK      -0.098300
      5 C6          -0.4270    -0.0040     1.3040 cc         1 5LK      -0.094900
      6 N7          -1.7490    -0.0120     1.6310 ne         1 5LK      -0.355100
      7 C8          -2.6130     0.3110     0.7220 c2         1 5LK       0.334200
      8 C10         -2.2170     0.7260    -0.6660 c3         1 5LK      -0.066700
      9 C11         -0.9420     0.0090    -1.1230 c3         1 5LK      -0.016800
     10 N12         -1.2620    -1.3710    -1.5130 nz         1 5LK       0.024400
     11 C15         -1.9790     2.2130    -0.6860 ca         1 5LK      -0.175300
     12 C16         -2.7330     3.0220    -1.5170 ca         1 5LK      -0.069500
     13 C18         -2.5170     4.3860    -1.5370 ca         1 5LK      -0.121000
     14 C20         -1.5430     4.9450    -0.7230 ca         1 5LK       0.173100
     15 C21         -0.7870     4.1320     0.1080 ca         1 5LK      -0.121000
     16 C23         -1.0110     2.7690     0.1300 ca         1 5LK      -0.069500
     17 O25         -1.3280     6.2870    -0.7420 oh         1 5LK      -0.491100
     18 C27          0.7290    -0.0010     3.5810 ca         1 5LK      -0.026000
     19 C28          1.5240    -0.9200     4.2640 ca         1 5LK      -0.115000
     20 C30          1.5480    -0.9140     5.6510 ca         1 5LK       0.037600
     21 C31          0.7800     0.0050     6.3550 ca         1 5LK      -0.142000
     22 C33         -0.0100     0.9160     5.6780 ca         1 5LK      -0.062000
     23 C35         -0.0340     0.9210     4.2970 ca         1 5LK      -0.102000
     24 N37          2.3440    -1.8330     6.3400 nh         1 5LK      -0.361000
     25 C38          2.2200    -1.6520     7.7920 c3         1 5LK       0.135800
     26 C41          3.1640    -2.6220     8.5070 c3         1 5LK       0.153800
     27 N44          2.8310    -4.0000     8.1210 n3         1 5LK      -0.548600
     28 C45          2.9550    -4.1810     6.6680 c3         1 5LK       0.153800
     29 C48          2.0110    -3.2110     5.9530 c3         1 5LK       0.135800
     30 C51          3.6680    -4.9650     8.8450 c3         1 5LK       0.189100
     31 H3           2.8530     0.0020     1.5510 h4         1 5LK       0.036100
     32 H8          -3.5280     0.7520     1.0980 h4         1 5LK       0.032800
     33 H10         -3.0220     0.4820    -1.3490 hc         1 5LK       0.054700
     34 HN12        -1.9120    -1.3600    -2.2740 hn         1 5LK       0.236800
     35 H16         -3.4980     2.5860    -2.1480 ha         1 5LK       0.113000
     36 H18         -3.0900     5.0150    -2.2080 ha         1 5LK       0.131500
     37 H21         -0.0100     4.5630     0.7270 ha         1 5LK       0.131500
     38 H23         -0.4440     2.1390     0.8040 ha         1 5LK       0.113000
     39 HO25        -1.8880     6.7040    -0.1080 ho         1 5LK       0.420000
     40 H28          2.1220    -1.6350     3.7140 ha         1 5LK       0.115000
     41 H31          0.7970     0.0070     7.4380 ha         1 5LK       0.133000
     42 H33         -0.6050     1.6310     6.2310 ha         1 5LK       0.111000
     43 H35         -0.6540     1.6360     3.7690 ha         1 5LK       0.105000
     44 H38          1.1990    -1.8550     8.0950 h1         1 5LK       0.023450
     45 H38A         2.4840    -0.6350     8.0530 h1         1 5LK       0.023450
     46 H41          3.0500    -2.5110     9.5790 h1         1 5LK       0.018700
     47 H41A         4.1860    -2.4040     8.2230 h1         1 5LK       0.018700
     48 H45          2.6900    -5.1980     6.4080 h1         1 5LK       0.018700
     49 H45A         3.9750    -3.9780     6.3660 h1         1 5LK       0.018700
     50 H48          2.1250    -3.3220     4.8810 h1         1 5LK       0.023450
     51 H48A         0.9890    -3.4290     6.2380 h1         1 5LK       0.023450
     52 H51          3.4070    -5.9710     8.5380 h1         1 5LK       0.004700
     53 H51A         4.7110    -4.7780     8.6210 h1         1 5LK       0.004700
     54 H51B         3.5030    -4.8580     9.9100 h1         1 5LK       0.004700
     55 H25         -0.5060     0.5400    -1.9600 hx         1 5LK       0.118700
     56 H26         -0.4240    -1.8400    -1.7970 hn         1 5LK       0.236800
     57 H123        -1.6670    -1.8520    -0.7350 hn         1 5LK       0.236800
@<TRIPOS>BOND
     1     1     2 1   
     2     1     5 1   
     3     1     9 1   
     4     2     3 2   
     5     3     4 1   
     6     3    31 1   
     7     4     5 2   
     8     4    18 1   
     9     5     6 1   
    10     6     7 2   
    11     7     8 1   
    12     7    32 1   
    13     8     9 1   
    14     8    11 1   
    15     8    33 1   
    16     9    10 1   
    17     9    55 1   
    18    10    34 1   
    19    10    56 1   
    20    10    57 1   
    21    11    12 ar  
    22    11    16 ar  
    23    12    13 ar  
    24    12    35 1   
    25    13    14 ar  
    26    13    36 1   
    27    14    15 ar  
    28    14    17 1   
    29    15    16 ar  
    30    15    37 1   
    31    16    38 1   
    32    17    39 1   
    33    18    19 ar  
    34    18    23 ar  
    35    19    20 ar  
    36    19    40 1   
    37    20    21 ar  
    38    20    24 1   
    39    21    22 ar  
    40    21    41 1   
    41    22    23 ar  
    42    22    42 1   
    43    23    43 1   
    44    24    25 1   
    45    24    29 1   
    46    25    26 1   
    47    25    44 1   
    48    25    45 1   
    49    26    27 1   
    50    26    46 1   
    51    26    47 1   
    52    27    28 1   
    53    27    30 1   
    54    28    29 1   
    55    28    48 1   
    56    28    49 1   
    57    29    50 1   
    58    29    51 1   
    59    30    52 1   
    60    30    53 1   
    61    30    54 1   
@<TRIPOS>SUBSTRUCTURE
     1 5LK         1 TEMP              0 ****  ****    0 ROOT
