@<TRIPOS>MOLECULE
molecule
   25    26     1     0     0
SMALL
bcc


@<TRIPOS>ATOM
      1 CAQ          0.0000     0.0000     0.0000 cc         1 5LM      -0.110000
      2 CAP          1.3710     0.0000     0.0000 cc         1 5LM      -0.170000
      3 CAO          1.9430     0.0000     1.2130 cd         1 5LM      -0.100100
      4 SAN          0.7630    -0.0000     2.4460 ss         1 5LM      -0.022800
      5 CAM         -0.5400     0.0000     1.2650 cc         1 5LM      -0.075900
      6 CAL         -1.9160     0.0000     1.5660 ce         1 5LM       0.024800
      7 CAK         -2.3340     0.0000     2.8810 cf         1 5LM      -0.235000
      8 CAJ         -3.6930     0.0000     3.1790 cf         1 5LM       0.093000
      9 CAE         -4.1190     0.1110     4.5040 cc         1 5LM      -0.342400
     10 CAF         -5.5250    -0.0990     4.8790 c          1 5LM       0.720200
     11 OAG         -6.3600    -0.3760     4.0390 o          1 5LM      -0.617000
     12 NAA         -5.8650     0.0250     6.1790 ns         1 5LM      -0.568000
     13 CAB         -4.9540     0.3310     7.1140 c          1 5LM       0.818500
     14 OAH         -5.3240     0.4270     8.2680 o          1 5LM      -0.648500
     15 NAC         -3.6580     0.5340     6.8430 ns         1 5LM      -0.568000
     16 CAD         -3.1760     0.4370     5.5860 c          1 5LM       0.720200
     17 OAI         -1.9970     0.6240     5.3520 o          1 5LM      -0.617000
     18 H1          -0.5970     0.0000    -0.9040 ha         1 5LM       0.154000
     19 H2           1.9520    -0.0000    -0.9150 ha         1 5LM       0.151000
     20 H3           3.0120    -0.0000     1.3870 h4         1 5LM       0.175000
     21 H4          -2.6450     0.0010     0.7660 ha         1 5LM       0.139000
     22 H6          -1.6040    -0.0000     3.6810 ha         1 5LM       0.192000
     23 H8          -4.4100    -0.2450     2.4040 ha         1 5LM       0.154000
     24 H11         -6.8180    -0.1150     6.4510 hn         1 5LM       0.366000
     25 H12         -3.0310     0.7580     7.5910 hn         1 5LM       0.366000
@<TRIPOS>BOND
     1    14    13 2
     2    13    12 1
     3    13    15 1
     4    12    10 1
     5    15    16 1
     6    11    10 2
     7    10     9 1
     8    16     9 1
     9    16    17 2
    10     9     8 2
    11     8     7 1
    12     6     7 2
    13     6     5 1
    14     1     5 2
    15     1     2 1
    16     5     4 1
    17     2     3 2
    18     4     3 1
    19     1    18 1
    20     2    19 1
    21     3    20 1
    22     6    21 1
    23     7    22 1
    24     8    23 1
    25    12    24 1
    26    15    25 1
@<TRIPOS>SUBSTRUCTURE
     1 5LM         1 TEMP              0 ****  ****    0 ROOT
