@<TRIPOS>MOLECULE
5LM
   25    28     1     0     0
SMALL
bcc


@<TRIPOS>ATOM
      1 CAQ          0.0000     0.0000     0.0000 c2         1 5LM      -0.147000
      2 CAP          1.3710     0.0000     0.0000 c2         1 5LM      -0.109000
      3 CAO          1.9430     0.0000     1.2130 c2         1 5LM      -0.302000
      4 SAN          0.7630    -0.0000     2.4460 ss         1 5LM       0.369000
      5 CAM         -0.5400     0.0000     1.2650 c3         1 5LM      -0.260000
      6 CAL         -1.9160     0.0000     1.5660 c2         1 5LM      -0.088000
      7 CAK         -2.3340     0.0000     2.8810 c2         1 5LM       0.075000
      8 CAJ         -3.6930     0.0000     3.1790 c3         1 5LM       0.205000
      9 CAE         -4.1190     0.1110     4.5040 c2         1 5LM      -0.509000
     10 CAF         -5.5250    -0.0990     4.8790 c2         1 5LM       0.300500
     11 OAG         -6.3600    -0.3760     4.0390 o          1 5LM      -0.402000
     12 NAA         -5.8650     0.0250     6.1790 ns         1 5LM       0.083500
     13 CAB         -4.9540     0.3310     7.1140 c2         1 5LM       0.189000
     14 OAH         -5.3240     0.4270     8.2680 o          1 5LM      -0.429000
     15 NAC         -3.6580     0.5340     6.8430 ns         1 5LM       0.083500
     16 CAD         -3.1760     0.4370     5.5860 c2         1 5LM       0.300500
     17 OAI         -1.9970     0.6240     5.3520 o          1 5LM      -0.402000
     18 H1          -0.5970     0.0000    -0.9040 ha         1 5LM       0.136000
     19 H2           1.9520    -0.0000    -0.9150 ha         1 5LM       0.124000
     20 H3           3.0120    -0.0000     1.3870 h4         1 5LM       0.156000
     21 H4          -1.2780     0.8750     1.6160 DU         1 5LM       0.173000
     22 H6          -2.9710     0.8750     2.8310 DU         1 5LM       0.060000
     23 H8          -4.4100    -0.2450     2.4040 hc         1 5LM       0.154000
     24 H11         -6.8180    -0.1150     6.4510 hn         1 5LM       0.119500
     25 H12         -3.0310     0.7580     7.5910 hn         1 5LM       0.119500
@<TRIPOS>BOND
     1     1     2 1   
     2     1     5 1   
     3     1    18 1   
     4     2     3 1   
     5     2    19 1   
     6     3     4 1   
     7     3    20 1   
     8     4     5 1   
     9     5     6 1   
    10     5    21 1   
    11     6     7 1   
    12     6    21 1   
    13     7     8 1   
    14     7    22 1   
    15     8     9 1   
    16     8    22 1   
    17     8    23 1   
    18     9    10 1   
    19     9    16 1   
    20    10    11 1   
    21    10    12 1   
    22    12    13 1   
    23    12    24 1   
    24    13    14 1   
    25    13    15 1   
    26    15    16 1   
    27    15    25 1   
    28    16    17 1   
@<TRIPOS>SUBSTRUCTURE
     1 5LM         1 TEMP              0 ****  ****    0 ROOT
