@<TRIPOS>MOLECULE
molecule
   58    62     1     0     0
SMALL
bcc


@<TRIPOS>ATOM
      1 C10          0.0000     0.0000     0.0000 ca         1 5LO      -0.101300
      2 C13         -2.7830     0.0170    -0.1360 ca         1 5LO       0.111100
      3 C15         -2.0210     0.3700    -1.2420 ca         1 5LO      -0.146300
      4 C17         -4.3190     0.1110    -1.8250 c3         1 5LO       0.148100
      5 C20         -2.6030    -0.1230    -3.6070 c3         1 5LO      -0.071400
      6 C21         -3.0670     2.1780    -2.6500 ca         1 5LO      -0.105300
      7 C22         -2.3880     3.0740    -1.8420 ca         1 5LO      -0.150500
      8 C24         -3.2200     4.8940    -3.1720 ca         1 5LO      -0.097600
      9 C28         -3.9060     3.9850    -3.9790 ca         1 5LO      -0.101500
     10 C02         -0.1090    -0.7490     2.4120 c3         1 5LO      -0.013700
     11 C03          1.3550    -1.1290     2.2050 c3         1 5LO      -0.070400
     12 C04          2.0440     0.0000     1.4300 c3         1 5LO      -0.070400
     13 C05          1.5060     0.0000     0.0000 c3         1 5LO      -0.009700
     14 C06          2.0100     1.2460    -0.7290 c3         1 5LO      -0.081600
     15 C07          2.0100    -1.2480    -0.7280 c3         1 5LO      -0.081600
     16 C08         -0.1910     0.4250     3.3900 c3         1 5LO      -0.079600
     17 C09         -0.7440    -0.3510     1.1040 ca         1 5LO      -0.024300
     18 C11         -0.6480     0.3640    -1.1750 ca         1 5LO      -0.071000
     19 C12         -2.1290    -0.3450     1.0360 ca         1 5LO      -0.162000
     20 O14         -4.1140     0.0960    -0.4070 os         1 5LO      -0.312900
     21 C16         -2.9850     0.7000    -2.3660 c3         1 5LO       0.018600
     22 C18         -4.3300    -1.3410    -2.3570 c3         1 5LO      -0.110400
     23 C19         -3.7010    -1.1890    -3.7910 c3         1 5LO      -0.085400
     24 C23         -2.4600     4.4280    -2.0970 ca         1 5LO      -0.101500
     25 C25         -3.3000     6.3430    -3.4500 c          1 5LO       0.881200
     26 O26         -4.0340     6.7890    -4.4890 o          1 5LO      -0.836800
     27 O27         -2.7050     7.1310    -2.7430 o          1 5LO      -0.836800
     28 C29         -3.8260     2.6340    -3.7140 ca         1 5LO      -0.150500
     29 H1          -5.1880     0.6840    -2.1250 h1         1 5LO       0.108700
     30 H2          -2.5630     0.5190    -4.4780 hc         1 5LO       0.052700
     31 H3          -1.6450    -0.6040    -3.4500 hc         1 5LO       0.052700
     32 H4          -1.7990     2.7110    -1.0090 ha         1 5LO       0.112000
     33 H5          -4.4990     4.3400    -4.8130 ha         1 5LO       0.150500
     34 H6          -1.8270    -1.6180     3.3680 hc         1 5LO       0.035200
     35 H7          -1.0080    -2.6930     2.2260 hc         1 5LO       0.035200
     36 H8          -0.2890    -2.3710     3.8100 hc         1 5LO       0.035200
     37 H9           1.4150    -2.0490     1.6360 hc         1 5LO       0.040700
     38 H10          1.8370    -1.2560     3.1660 hc         1 5LO       0.040700
     39 H11          1.8250     0.9510     1.9010 hc         1 5LO       0.044200
     40 H12          3.1140    -0.1690     1.4150 hc         1 5LO       0.044200
     41 H13          3.0700     1.3690    -0.5420 hc         1 5LO       0.035700
     42 H14          1.8420     1.1350    -1.7940 hc         1 5LO       0.035700
     43 H15          1.4760     2.1170    -0.3680 hc         1 5LO       0.035700
     44 H16          3.0000    -1.5000    -0.3690 hc         1 5LO       0.035700
     45 H17          1.3350    -2.0740    -0.5390 hc         1 5LO       0.035700
     46 H18          2.0520    -1.0520    -1.7930 hc         1 5LO       0.035700
     47 H19          0.5620     0.3080     4.1590 hc         1 5LO       0.035200
     48 H20         -1.1730     0.4470     3.8460 hc         1 5LO       0.035200
     49 H21         -0.0210     1.3530     2.8560 hc         1 5LO       0.035200
     50 H22         -0.0880     0.4200    -2.1010 ha         1 5LO       0.136000
     51 H23         -2.9030    -0.4640     1.7850 ha         1 5LO       0.140000
     52 H24         -3.7150    -1.9800    -1.7350 hc         1 5LO       0.050200
     53 H25         -5.3440    -1.7160    -2.4220 hc         1 5LO       0.050200
     54 H26         -3.2670    -2.1280    -4.1140 hc         1 5LO       0.040700
     55 H27         -4.4480    -0.8460    -4.4960 hc         1 5LO       0.040700
     56 H28         -1.9270     5.1280    -1.4650 ha         1 5LO       0.150500
     57 H30         -4.3570     1.9270    -4.3410 ha         1 5LO       0.112000
     58 C01         -0.8630    -1.9450     2.9970 c3         1 5LO      -0.079600
@<TRIPOS>BOND
     1    12    11 1   
     2    12    13 1   
     3    14    13 1   
     4    11    10 1   
     5    13    15 1   
     6    13     1 1   
     7    16    10 1   
     8    10    58 1   
     9    10    17 1   
    10     1    17 ar  
    11     1    18 ar  
    12    17    19 ar  
    13    18     3 ar  
    14    27    25 1   
    15     9    28 ar  
    16     9     8 ar  
    17    28     6 ar  
    18    19     2 ar  
    19    25     8 1   
    20    25    26 1   
    21     3     2 ar  
    22     3    21 1   
    23     8    24 ar  
    24     2    20 1   
    25     6    21 1   
    26     6     7 ar  
    27    21     5 1   
    28    21     4 1   
    29    24     7 ar  
    30     5    23 1   
    31    20     4 1   
    32    23    22 1   
    33     4    22 1   
    34     4    29 1   
    35     5    30 1   
    36     5    31 1   
    37     7    32 1   
    38     9    33 1   
    39    58    34 1   
    40    58    35 1   
    41    58    36 1   
    42    11    37 1   
    43    11    38 1   
    44    12    39 1   
    45    12    40 1   
    46    14    41 1   
    47    14    42 1   
    48    14    43 1   
    49    15    44 1   
    50    15    45 1   
    51    15    46 1   
    52    16    47 1   
    53    16    48 1   
    54    16    49 1   
    55    18    50 1   
    56    19    51 1   
    57    22    52 1   
    58    22    53 1   
    59    23    54 1   
    60    23    55 1   
    61    24    56 1   
    62    28    57 1   
@<TRIPOS>SUBSTRUCTURE
     1 5LO         1 TEMP              0 ****  ****    0 ROOT
