@<TRIPOS>MOLECULE
molecule
   35    36     1     0     0
SMALL
bcc


@<TRIPOS>ATOM
      1 N            0.0000     0.0000     0.0000 ns         1 5LP      -0.454100
      2 C2          -2.0830     0.2930     3.6000 ca         1 5LP      -0.175000
      3 C3          -2.5950     0.8950     2.4720 ca         1 5LP      -0.077000
      4 C4          -1.9080     0.8050     1.2590 ca         1 5LP      -0.140600
      5 O           -1.8960     1.2900    -1.0220 o          1 5LP      -0.843300
      6 C11          6.1800    -0.3580    -1.1770 ca         1 5LP      -0.004600
      7 C10          5.4430    -0.8520    -0.1140 ca         1 5LP      -0.113000
      8 C9           4.0660    -0.7340    -0.1090 ca         1 5LP      -0.134000
      9 C12          5.5420     0.2610    -2.2360 ca         1 5LP      -0.123000
     10 C13          4.1610     0.3830    -2.2390 ca         1 5LP       0.117600
     11 C8           3.4190    -0.1190    -1.1710 ca         1 5LP       0.087600
     12 C7           1.3480     0.0000     0.0000 c          1 5LP       0.774100
     13 O2           1.9560     0.0000     1.0530 o          1 5LP      -0.671100
     14 C6          -0.6960     0.0990     1.2010 ca         1 5LP       0.086600
     15 O1          -3.5590     2.2070     0.1300 o          1 5LP      -0.843300
     16 C14         -0.1950    -0.5020     2.3500 ca         1 5LP      -0.157000
     17 C1          -0.8840    -0.3980     3.5410 ca         1 5LP      -0.093300
     18 H1          -0.5000    -0.0620    -0.8640 hn         1 5LP       0.365500
     19 H2          -2.6180     0.3650     4.5400 ha         1 5LP       0.107000
     20 H3           3.2790     0.4830    -4.1290 hn         1 5LP       0.427300
     21 H4           3.2960     1.9840    -3.2620 hn         1 5LP       0.427300
     22 H5          -3.5340     1.4350     2.5240 ha         1 5LP       0.155000
     23 H6          -1.1050    -1.0880     5.5430 hc         1 5LP       0.029367
     24 H7           0.5090    -0.4790     5.1490 hc         1 5LP       0.029367
     25 H8          -0.0120    -2.0590     4.5480 hc         1 5LP       0.029367
     26 H9           5.9470    -1.3320     0.7160 ha         1 5LP       0.138000
     27 H10          3.4930    -1.1230     0.7230 ha         1 5LP       0.187000
     28 H11          6.1230     0.6610    -3.0590 ha         1 5LP       0.140000
     29 H12          1.5230     0.0710    -2.0330 hn         1 5LP       0.333500
     30 H14          0.7420    -1.0440     2.3120 ha         1 5LP       0.146000
     31 C           -0.3340    -1.0520     4.7830 c3         1 5LP      -0.037800
     32 N1           2.0210     0.0000    -1.1680 ns         1 5LP      -0.480100
     33 Cl           7.9100    -0.5100    -1.1750 cl         1 5LP      -0.143400
     34 C5          -2.4500     1.4460     0.0490 c          1 5LP       0.895200
     35 N2           3.5140     1.0090    -3.3100 nv         1 5LP      -0.984200
@<TRIPOS>BOND
     1    33     6 1
     2     9     6 ar
     3     9    10 ar
     4    35    10 1
     5     6     7 ar
     6    10    11 ar
     7     7     8 ar
     8    11     8 ar
     9    11    32 1
    10    32    12 1
    11     5    34 1
    12    12     1 1
    13    12    13 2
    14    34    15 1
    15    34     4 1
    16     1    14 1
    17    14     4 ar
    18    14    16 ar
    19     4     3 ar
    20    16    17 ar
    21     3     2 ar
    22    17     2 ar
    23    17    31 1
    24     1    18 1
    25     2    19 1
    26    35    20 1
    27    35    21 1
    28     3    22 1
    29    31    23 1
    30    31    24 1
    31    31    25 1
    32     7    26 1
    33     8    27 1
    34     9    28 1
    35    32    29 1
    36    16    30 1
@<TRIPOS>SUBSTRUCTURE
     1 5LP         1 TEMP              0 ****  ****    0 ROOT
