@<TRIPOS>MOLECULE
5LP
   35    36     1     0     0
SMALL
bcc


@<TRIPOS>ATOM
      1 N            0.0000     0.0000     0.0000 ns         1 5LP      -0.027100
      2 C2          -2.0830     0.2930     3.6000 ca         1 5LP      -0.155000
      3 C3          -2.5950     0.8950     2.4720 ca         1 5LP      -0.046000
      4 C4          -1.9080     0.8050     1.2590 ca         1 5LP      -0.143600
      5 O           -1.8960     1.2900    -1.0220 o          1 5LP      -0.889300
      6 C11          6.1800    -0.3580    -1.1770 ca         1 5LP      -0.059600
      7 C10          5.4430    -0.8520    -0.1140 ca         1 5LP      -0.084000
      8 C9           4.0660    -0.7340    -0.1090 ca         1 5LP      -0.118000
      9 C12          5.5420     0.2610    -2.2360 ca         1 5LP      -0.097000
     10 C13          4.1610     0.3830    -2.2390 ca         1 5LP      -0.019400
     11 C8           3.4190    -0.1190    -1.1710 ca         1 5LP      -0.049400
     12 C7           1.3480     0.0000     0.0000 c          1 5LP       0.543100
     13 O2           1.9560     0.0000     1.0530 o          1 5LP      -0.723100
     14 C6          -0.6960     0.0990     1.2010 ca         1 5LP      -0.053400
     15 O1          -3.5590     2.2070     0.1300 o          1 5LP      -0.889300
     16 C14         -0.1950    -0.5020     2.3500 ca         1 5LP      -0.143000
     17 C1          -0.8840    -0.3980     3.5410 ca         1 5LP      -0.100300
     18 H1          -0.5000    -0.0620    -0.8640 hn         1 5LP       0.223500
     19 H2          -2.6180     0.3650     4.5400 ha         1 5LP       0.088000
     20 H3           3.2790     0.4830    -4.1290 hn         1 5LP       0.271300
     21 H4           3.2960     1.9840    -3.2620 hn         1 5LP       0.271300
     22 H5          -3.5340     1.4350     2.5240 ha         1 5LP       0.127000
     23 H6          -1.1050    -1.0880     5.5430 hc         1 5LP      -0.005300
     24 H7           0.5090    -0.4790     5.1490 hc         1 5LP      -0.005300
     25 H8          -0.0120    -2.0590     4.5480 hc         1 5LP      -0.005300
     26 H9           5.9470    -1.3320     0.7160 ha         1 5LP       0.107000
     27 H10          3.4930    -1.1230     0.7230 ha         1 5LP       0.167000
     28 H11          6.1230     0.6610    -3.0590 ha         1 5LP       0.110000
     29 H12          1.5230     0.0710    -2.0330 hn         1 5LP       0.174500
     30 H14          0.7420    -1.0440     2.3120 ha         1 5LP       0.136000
     31 C           -0.3340    -1.0520     4.7830 c3         1 5LP       0.071200
     32 N1           2.0210     0.0000    -1.1680 ns         1 5LP      -0.047100
     33 Cl           7.9100    -0.5100    -1.1750 cl         1 5LP      -0.070400
     34 C5          -2.4500     1.4460     0.0490 c          1 5LP       0.991200
     35 N2           3.5140     1.0090    -3.3100 nv         1 5LP      -0.551200
@<TRIPOS>BOND
     1     1    12 1   
     2     1    14 1   
     3     1    18 1   
     4     2     3 ar  
     5     2    17 ar  
     6     2    19 1   
     7     3     4 ar  
     8     3    22 1   
     9     4    14 ar  
    10     4    34 1   
    11     5    34 1   
    12     6     7 ar  
    13     6     9 ar  
    14     6    33 1   
    15     7     8 ar  
    16     7    26 1   
    17     8    11 ar  
    18     8    27 1   
    19     9    10 ar  
    20     9    28 1   
    21    10    11 ar  
    22    10    35 1   
    23    11    32 1   
    24    12    13 2   
    25    12    32 1   
    26    14    16 ar  
    27    15    34 1   
    28    16    17 ar  
    29    16    30 1   
    30    17    31 1   
    31    20    35 1   
    32    21    35 1   
    33    23    31 1   
    34    24    31 1   
    35    25    31 1   
    36    29    32 1   
@<TRIPOS>SUBSTRUCTURE
     1 5LP         1 TEMP              0 ****  ****    0 ROOT
