@<TRIPOS>MOLECULE
molecule
   47    49     1     0     0
SMALL
bcc


@<TRIPOS>ATOM
      1 N            0.0000     0.0000     0.0000 nu         1 5LQ      -0.828200
      2 C            6.4160    -0.8710    -2.3670 ca         1 5LQ       0.025400
      3 O           -7.4510    -0.9060     0.0400 os         1 5LQ      -0.423600
      4 S            3.2830     0.0000     1.7450 sy         1 5LQ       1.344300
      5 O1           3.6960    -1.2560     2.2670 o          1 5LQ      -0.606300
      6 C3           3.6370     0.0000     0.0000 ce         1 5LQ      -0.147300
      7 C2           4.9450     0.0000    -0.6780 ca         1 5LQ      -0.006800
      8 C1           5.1870    -0.8780    -1.7360 ca         1 5LQ      -0.103000
      9 C14          5.9500     0.8810    -0.2640 ca         1 5LQ      -0.106000
     10 C15          7.1720     0.8760    -0.9030 ca         1 5LQ      -0.116000
     11 C16          7.4060     0.0030    -1.9510 ca         1 5LQ      -0.110000
     12 N2           1.6120    -0.0000     1.6860 ne         1 5LQ      -0.726300
     13 C6           1.3160     0.0000     0.4180 cf         1 5LQ       0.739500
     14 C4           2.4000     0.0010    -0.5440 cf         1 5LQ      -0.205800
     15 C5           2.1670     0.0010    -2.0330 c3         1 5LQ      -0.047900
     16 C7          -1.0820     0.0000     0.9870 c3         1 5LQ       0.231800
     17 C8          -2.4320     0.0060     0.2650 c3         1 5LQ      -0.106400
     18 C9          -3.5620     0.0060     1.2970 c3         1 5LQ       0.168800
     19 N1          -4.8580     0.0120     0.6030 n3         1 5LQ      -0.730600
     20 C13         -5.0660    -1.2420    -0.1350 c3         1 5LQ       0.121800
     21 C12         -6.3970    -1.1690    -0.8890 c3         1 5LQ       0.139900
     22 C11         -7.2810     0.3090     0.7770 c3         1 5LQ       0.139900
     23 C10         -5.9590     0.2500     1.5470 c3         1 5LQ       0.121800
     24 H1          -0.2150    -0.0230    -0.9770 hn         1 5LQ       0.450800
     25 H2           4.4130    -1.5620    -2.0620 ha         1 5LQ       0.146000
     26 H3           5.7690     1.5650     0.5560 ha         1 5LQ       0.158000
     27 H4           7.9520     1.5570    -0.5830 ha         1 5LQ       0.145000
     28 H5           8.3680     0.0040    -2.4490 ha         1 5LQ       0.147000
     29 H6           3.0330     0.4160    -2.5340 hc         1 5LQ       0.058033
     30 H7           1.2950     0.6020    -2.2620 hc         1 5LQ       0.058033
     31 H8           2.0050    -1.0140    -2.3740 hc         1 5LQ       0.058033
     32 H9          -1.0020     0.8830     1.6110 h1         1 5LQ       0.067200
     33 H10         -1.0070    -0.8860     1.6050 h1         1 5LQ       0.067200
     34 H11         -2.5120    -0.8760    -0.3590 hc         1 5LQ       0.054200
     35 H12         -2.5070     0.8930    -0.3520 hc         1 5LQ       0.054200
     36 H13         -3.4870    -0.8810     1.9140 h1         1 5LQ       0.042200
     37 H14         -3.4820     0.8880     1.9200 h1         1 5LQ       0.042200
     38 H16         -4.2580    -1.3830    -0.8430 h1         1 5LQ       0.043950
     39 H17         -5.0910    -2.0710     0.5620 h1         1 5LQ       0.043950
     40 H18         -6.5820    -2.1130    -1.3860 h1         1 5LQ       0.054200
     41 H19         -6.3530    -0.3710    -1.6200 h1         1 5LQ       0.054200
     42 H20         -8.1000     0.4250     1.4760 h1         1 5LQ       0.054200
     43 H21         -7.2610     1.1470     0.0910 h1         1 5LQ       0.054200
     44 H22         -5.7980     1.1910     2.0590 h1         1 5LQ       0.043950
     45 H23         -5.9970    -0.5590     2.2670 h1         1 5LQ       0.043950
     46 O2           3.6950     1.2550     2.2670 o          1 5LQ      -0.606300
     47 Cl           6.7220    -1.9660    -3.6790 cl         1 5LQ      -0.104400
@<TRIPOS>BOND
     1    47     2 1   
     2    11     2 ar  
     3    11    10 ar  
     4     2     8 ar  
     5    10     9 ar  
     6     8     7 ar  
     7     9     7 ar  
     8     7     6 1   
     9     5     4 2   
    10     6    14 2   
    11     6     4 1   
    12    15    14 1   
    13    14    13 1   
    14     4    46 2   
    15     4    12 1   
    16    13    12 2   
    17    13     1 1   
    18     1    16 1   
    19    16    17 1   
    20    17    18 1   
    21    18    19 1   
    22    19    23 1   
    23    19    20 1   
    24    23    22 1   
    25    20    21 1   
    26    22     3 1   
    27    21     3 1   
    28     1    24 1   
    29     8    25 1   
    30     9    26 1   
    31    10    27 1   
    32    11    28 1   
    33    15    29 1   
    34    15    30 1   
    35    15    31 1   
    36    16    32 1   
    37    16    33 1   
    38    17    34 1   
    39    17    35 1   
    40    18    36 1   
    41    18    37 1   
    42    20    38 1   
    43    20    39 1   
    44    21    40 1   
    45    21    41 1   
    46    22    42 1   
    47    22    43 1   
    48    23    44 1   
    49    23    45 1   
@<TRIPOS>SUBSTRUCTURE
     1 5LQ         1 TEMP              0 ****  ****    0 ROOT
