@<TRIPOS>MOLECULE
5LQ
   47    49     1     0     0
SMALL
bcc


@<TRIPOS>ATOM
      1 N            0.0000     0.0000     0.0000 nu         1 5LQ      -0.412200
      2 C            6.4160    -0.8710    -2.3670 ca         1 5LQ      -0.036600
      3 O           -7.4510    -0.9060     0.0400 os         1 5LQ      -0.410600
      4 S            3.2830     0.0000     1.7450 sy         1 5LQ       1.055300
      5 O1           3.6960    -1.2560     2.2670 o          1 5LQ      -0.568300
      6 C3           3.6370     0.0000     0.0000 ce         1 5LQ      -0.003300
      7 C2           4.9450     0.0000    -0.6780 ca         1 5LQ      -0.000800
      8 C1           5.1870    -0.8780    -1.7360 ca         1 5LQ      -0.092000
      9 C14          5.9500     0.8810    -0.2640 ca         1 5LQ      -0.080000
     10 C15          7.1720     0.8760    -0.9030 ca         1 5LQ      -0.086000
     11 C16          7.4060     0.0030    -1.9510 ca         1 5LQ      -0.090000
     12 N2           1.6120    -0.0000     1.6860 ne         1 5LQ      -0.622300
     13 C6           1.3160     0.0000     0.4180 cf         1 5LQ       0.593500
     14 C4           2.4000     0.0010    -0.5440 cf         1 5LQ      -0.202800
     15 C5           2.1670     0.0010    -2.0330 c3         1 5LQ       0.055100
     16 C7          -1.0820     0.0000     0.9870 c3         1 5LQ       0.157800
     17 C8          -2.4320     0.0060     0.2650 c3         1 5LQ      -0.052400
     18 C9          -3.5620     0.0060     1.2970 c3         1 5LQ       0.162800
     19 N1          -4.8580     0.0120     0.6030 n3         1 5LQ      -0.541600
     20 C13         -5.0660    -1.2420    -0.1350 c3         1 5LQ       0.108800
     21 C12         -6.3970    -1.1690    -0.8890 c3         1 5LQ       0.215400
     22 C11         -7.2810     0.3090     0.7770 c3         1 5LQ       0.215400
     23 C10         -5.9590     0.2500     1.5470 c3         1 5LQ       0.108800
     24 H1          -0.2150    -0.0230    -0.9770 hn         1 5LQ       0.296800
     25 H2           4.4130    -1.5620    -2.0620 ha         1 5LQ       0.119000
     26 H3           5.7690     1.5650     0.5560 ha         1 5LQ       0.132000
     27 H4           7.9520     1.5570    -0.5830 ha         1 5LQ       0.111000
     28 H5           8.3680     0.0040    -2.4490 ha         1 5LQ       0.115000
     29 H6           3.0330     0.4160    -2.5340 hc         1 5LQ       0.020367
     30 H7           1.2950     0.6020    -2.2620 hc         1 5LQ       0.020367
     31 H8           2.0050    -1.0140    -2.3740 hc         1 5LQ       0.020367
     32 H9          -1.0020     0.8830     1.6110 h1         1 5LQ       0.038200
     33 H10         -1.0070    -0.8860     1.6050 h1         1 5LQ       0.038200
     34 H11         -2.5120    -0.8760    -0.3590 hc         1 5LQ       0.025200
     35 H12         -2.5070     0.8930    -0.3520 hc         1 5LQ       0.025200
     36 H13         -3.4870    -0.8810     1.9140 h1         1 5LQ       0.015200
     37 H14         -3.4820     0.8880     1.9200 h1         1 5LQ       0.015200
     38 H16         -4.2580    -1.3830    -0.8430 h1         1 5LQ       0.018450
     39 H17         -5.0910    -2.0710     0.5620 h1         1 5LQ       0.018450
     40 H18         -6.5820    -2.1130    -1.3860 h1         1 5LQ       0.012950
     41 H19         -6.3530    -0.3710    -1.6200 h1         1 5LQ       0.012950
     42 H20         -8.1000     0.4250     1.4760 h1         1 5LQ       0.012950
     43 H21         -7.2610     1.1470     0.0910 h1         1 5LQ       0.012950
     44 H22         -5.7980     1.1910     2.0590 h1         1 5LQ       0.018450
     45 H23         -5.9970    -0.5590     2.2670 h1         1 5LQ       0.018450
     46 O2           3.6950     1.2550     2.2670 o          1 5LQ      -0.568300
     47 Cl           6.7220    -1.9660    -3.6790 cl         1 5LQ      -0.024400
@<TRIPOS>BOND
     1     1    13 1   
     2     1    16 1   
     3     1    24 1   
     4     2     8 ar  
     5     2    11 ar  
     6     2    47 1   
     7     3    21 1   
     8     3    22 1   
     9     4     5 2   
    10     4     6 1   
    11     4    12 1   
    12     4    46 2   
    13     6     7 1   
    14     6    14 2   
    15     7     8 ar  
    16     7     9 ar  
    17     8    25 1   
    18     9    10 ar  
    19     9    26 1   
    20    10    11 ar  
    21    10    27 1   
    22    11    28 1   
    23    12    13 2   
    24    13    14 1   
    25    14    15 1   
    26    15    29 1   
    27    15    30 1   
    28    15    31 1   
    29    16    17 1   
    30    16    32 1   
    31    16    33 1   
    32    17    18 1   
    33    17    34 1   
    34    17    35 1   
    35    18    19 1   
    36    18    36 1   
    37    18    37 1   
    38    19    20 1   
    39    19    23 1   
    40    20    21 1   
    41    20    38 1   
    42    20    39 1   
    43    21    40 1   
    44    21    41 1   
    45    22    23 1   
    46    22    42 1   
    47    22    43 1   
    48    23    44 1   
    49    23    45 1   
@<TRIPOS>SUBSTRUCTURE
     1 5LQ         1 TEMP              0 ****  ****    0 ROOT
