@<TRIPOS>MOLECULE
5LR
   53    56     1     0     0
SMALL
bcc


@<TRIPOS>ATOM
      1 C4           0.0000     0.0000     0.0000 ce         1 5LR      -0.002300
      2 C7           0.8710     0.0000     2.1930 cf         1 5LR       0.593500
      3 C8           1.9060     0.0010     4.4290 c3         1 5LR       0.157800
      4 C11          1.5970     1.2530     8.5490 c3         1 5LR       0.208100
      5 C12          1.2580     1.2830    10.0160 ca         1 5LR      -0.086300
      6 C15          0.5800     1.4120    12.6990 ca         1 5LR      -0.099000
      7 C18          2.9010    -0.5690    10.4900 c3         1 5LR       0.037900
      8 C19          3.4290    -0.2130     9.0990 c3         1 5LR       0.153800
      9 O1           2.2100     1.2560    -0.5080 o          1 5LR      -0.568300
     10 S            1.7800     0.0000     0.0000 sy         1 5LR       1.053300
     11 O            2.2100    -1.2560    -0.5080 o          1 5LR      -0.568300
     12 C3          -0.9230     0.0010    -1.1470 ca         1 5LR      -0.011800
     13 C2          -2.0060    -0.8840    -1.1760 ca         1 5LR      -0.075500
     14 C1          -2.8670    -0.8780    -2.2530 ca         1 5LR      -0.098500
     15 C20         -0.7250     0.8880    -2.2090 ca         1 5LR      -0.075500
     16 C21         -1.5940     0.8820    -3.2790 ca         1 5LR      -0.098500
     17 C           -2.6610    -0.0000    -3.3040 ca         1 5LR      -0.027600
     18 Cl          -3.7490    -0.0020    -4.6560 cl         1 5LR      -0.022400
     19 N2           2.0550     0.0000     1.6490 ne         1 5LR      -0.623300
     20 C5          -0.2880    -0.0060     1.3210 cf         1 5LR      -0.204800
     21 C6          -1.7000    -0.0080     1.8460 c3         1 5LR       0.057100
     22 N            0.7230     0.0010     3.5650 nu         1 5LR      -0.411200
     23 C9           1.4660     0.0010     5.8950 c3         1 5LR      -0.052400
     24 C10          2.7010     0.0020     6.7980 c3         1 5LR       0.161800
     25 N1           2.2810     0.0020     8.2050 n3         1 5LR      -0.540600
     26 C13          1.8660     0.4390    10.9200 ca         1 5LR      -0.070300
     27 C14          1.5260     0.5060    12.2630 ca         1 5LR      -0.101000
     28 C16         -0.0320     2.2570    11.7920 ca         1 5LR      -0.103000
     29 C17          0.3060     2.1920    10.4550 ca         1 5LR      -0.099000
     30 H1           2.4990    -0.8840     4.2300 h1         1 5LR       0.038200
     31 H2           2.4990     0.8850     4.2300 h1         1 5LR       0.038200
     32 H4           0.6760     1.3110     7.9800 h1         1 5LR       0.018700
     33 H5           0.3170     1.4590    13.7490 ha         1 5LR       0.103000
     34 H6           2.4510    -1.5540    10.4600 hc         1 5LR       0.026200
     35 H7           3.7210    -0.5640    11.1970 hc         1 5LR       0.026200
     36 H8           4.0360    -1.0280     8.7220 h1         1 5LR       0.012700
     37 H9           4.0200     0.6930     9.1560 h1         1 5LR       0.012700
     38 H12         -2.1690    -1.5720    -0.3550 ha         1 5LR       0.121500
     39 H13         -3.7050    -1.5640    -2.2790 ha         1 5LR       0.117500
     40 H14          0.1090     1.5790    -2.1910 ha         1 5LR       0.121500
     41 H15         -1.4400     1.5680    -4.1040 ha         1 5LR       0.117500
     42 H17         -2.3480     0.5000     1.1410 hc         1 5LR       0.019367
     43 H18         -1.7320     0.5060     2.7990 hc         1 5LR       0.019367
     44 H19         -2.0370    -1.0290     1.9750 hc         1 5LR       0.019367
     45 H20         -0.1920    -0.0290     3.9700 hn         1 5LR       0.297800
     46 H22          0.8740    -0.8840     6.0950 hc         1 5LR       0.025700
     47 H23          0.8730     0.8850     6.0940 hc         1 5LR       0.025700
     48 H24          3.2940     0.8870     6.5980 h1         1 5LR       0.014200
     49 H25          3.2950    -0.8820     6.5980 h1         1 5LR       0.014200
     50 H27          2.0060    -0.1560    12.9730 ha         1 5LR       0.105000
     51 H28         -0.7750     2.9690    12.1300 ha         1 5LR       0.102000
     52 H29         -0.1740     2.8540     9.7450 ha         1 5LR       0.102000
     53 H3           2.2610     2.0810     8.3310 h1         1 5LR       0.018700
@<TRIPOS>BOND
     1     1    10 1   
     2     1    12 1   
     3     1    20 2   
     4     2    19 2   
     5     2    20 1   
     6     2    22 1   
     7     3    22 1   
     8     3    23 1   
     9     3    30 1   
    10     3    31 1   
    11     4     5 1   
    12     4    25 1   
    13     4    32 1   
    14     4    53 1   
    15     5    26 ar  
    16     5    29 ar  
    17     6    27 ar  
    18     6    28 ar  
    19     6    33 1   
    20     7     8 1   
    21     7    26 1   
    22     7    34 1   
    23     7    35 1   
    24     8    25 1   
    25     8    36 1   
    26     8    37 1   
    27     9    10 2   
    28    10    11 2   
    29    10    19 1   
    30    12    13 ar  
    31    12    15 ar  
    32    13    14 ar  
    33    13    38 1   
    34    14    17 ar  
    35    14    39 1   
    36    15    16 ar  
    37    15    40 1   
    38    16    17 ar  
    39    16    41 1   
    40    17    18 1   
    41    20    21 1   
    42    21    42 1   
    43    21    43 1   
    44    21    44 1   
    45    22    45 1   
    46    23    24 1   
    47    23    46 1   
    48    23    47 1   
    49    24    25 1   
    50    24    48 1   
    51    24    49 1   
    52    26    27 ar  
    53    27    50 1   
    54    28    29 ar  
    55    28    51 1   
    56    29    52 1   
@<TRIPOS>SUBSTRUCTURE
     1 5LR         1 TEMP              0 ****  ****    0 ROOT
