@<TRIPOS>MOLECULE
molecule
   53    56     1     0     0
SMALL
bcc


@<TRIPOS>ATOM
      1 C4           0.0000     0.0000     0.0000 ce         1 5LR      -0.147300
      2 C7           0.8710     0.0000     2.1930 cf         1 5LR       0.739500
      3 C8           1.9060     0.0010     4.4290 c3         1 5LR       0.231800
      4 C11          1.5970     1.2530     8.5490 c3         1 5LR       0.206100
      5 C12          1.2580     1.2830    10.0160 ca         1 5LR      -0.079300
      6 C15          0.5800     1.4120    12.6990 ca         1 5LR      -0.125000
      7 C18          2.9010    -0.5690    10.4900 c3         1 5LR      -0.029100
      8 C19          3.4290    -0.2130     9.0990 c3         1 5LR       0.161800
      9 O1           2.2100     1.2560    -0.5080 o          1 5LR      -0.606300
     10 S            1.7800     0.0000     0.0000 sy         1 5LR       1.343300
     11 O            2.2100    -1.2560    -0.5080 o          1 5LR      -0.606300
     12 C3          -0.9230     0.0010    -1.1470 ca         1 5LR      -0.016800
     13 C2          -2.0060    -0.8840    -1.1760 ca         1 5LR      -0.098500
     14 C1          -2.8670    -0.8780    -2.2530 ca         1 5LR      -0.122000
     15 C20         -0.7250     0.8880    -2.2090 ca         1 5LR      -0.098500
     16 C21         -1.5940     0.8820    -3.2790 ca         1 5LR      -0.122000
     17 C           -2.6610    -0.0000    -3.3040 ca         1 5LR       0.039400
     18 Cl          -3.7490    -0.0020    -4.6560 cl         1 5LR      -0.102400
     19 N2           2.0550     0.0000     1.6490 ne         1 5LR      -0.727300
     20 C5          -0.2880    -0.0060     1.3210 cf         1 5LR      -0.207800
     21 C6          -1.7000    -0.0080     1.8460 c3         1 5LR      -0.045900
     22 N            0.7230     0.0010     3.5650 nu         1 5LR      -0.827200
     23 C9           1.4660     0.0010     5.8950 c3         1 5LR      -0.106400
     24 C10          2.7010     0.0020     6.7980 c3         1 5LR       0.167800
     25 N1           2.2810     0.0020     8.2050 n3         1 5LR      -0.725600
     26 C13          1.8660     0.4390    10.9200 ca         1 5LR      -0.063300
     27 C14          1.5260     0.5060    12.2630 ca         1 5LR      -0.128000
     28 C16         -0.0320     2.2570    11.7920 ca         1 5LR      -0.129000
     29 C17          0.3060     2.1920    10.4550 ca         1 5LR      -0.126000
     30 H1           2.4990    -0.8840     4.2300 h1         1 5LR       0.066700
     31 H2           2.4990     0.8850     4.2300 h1         1 5LR       0.066700
     32 H4           0.6760     1.3110     7.9800 h1         1 5LR       0.046200
     33 H5           0.3170     1.4590    13.7490 ha         1 5LR       0.130000
     34 H6           2.4510    -1.5540    10.4600 hc         1 5LR       0.058700
     35 H7           3.7210    -0.5640    11.1970 hc         1 5LR       0.058700
     36 H8           4.0360    -1.0280     8.7220 h1         1 5LR       0.039200
     37 H9           4.0200     0.6930     9.1560 h1         1 5LR       0.039200
     38 H12         -2.1690    -1.5720    -0.3550 ha         1 5LR       0.150500
     39 H13         -3.7050    -1.5640    -2.2790 ha         1 5LR       0.149500
     40 H14          0.1090     1.5790    -2.1910 ha         1 5LR       0.150500
     41 H15         -1.4400     1.5680    -4.1040 ha         1 5LR       0.149500
     42 H17         -2.3480     0.5000     1.1410 hc         1 5LR       0.057033
     43 H18         -1.7320     0.5060     2.7990 hc         1 5LR       0.057033
     44 H19         -2.0370    -1.0290     1.9750 hc         1 5LR       0.057033
     45 H20         -0.1920    -0.0290     3.9700 hn         1 5LR       0.450800
     46 H22          0.8740    -0.8840     6.0950 hc         1 5LR       0.055200
     47 H23          0.8730     0.8850     6.0940 hc         1 5LR       0.055200
     48 H24          3.2940     0.8870     6.5980 h1         1 5LR       0.040700
     49 H25          3.2950    -0.8820     6.5980 h1         1 5LR       0.040700
     50 H27          2.0060    -0.1560    12.9730 ha         1 5LR       0.130000
     51 H28         -0.7750     2.9690    12.1300 ha         1 5LR       0.130000
     52 H29         -0.1740     2.8540     9.7450 ha         1 5LR       0.127000
     53 H3           2.2610     2.0810     8.3310 h1         1 5LR       0.046200
@<TRIPOS>BOND
     1     1    10 1
     2     1    12 1
     3     1    20 2
     4     2    19 2
     5     2    20 1
     6     2    22 1
     7     3    22 1
     8     3    23 1
     9     4     5 1
    10     4    25 1
    11     5    26 ar
    12     5    29 ar
    13     6    27 ar
    14     6    28 ar
    15     7     8 1
    16     7    26 1
    17     8    25 1
    18     9    10 2
    19    10    11 2
    20    10    19 1
    21    12    13 ar
    22    12    15 ar
    23    13    14 ar
    24    14    17 ar
    25    15    16 ar
    26    16    17 ar
    27    17    18 1
    28    20    21 1
    29    23    24 1
    30    24    25 1
    31    26    27 ar
    32    28    29 ar
    33     3    30 1
    34     3    31 1
    35     4    53 1
    36     4    32 1
    37     6    33 1
    38     7    34 1
    39     7    35 1
    40     8    36 1
    41     8    37 1
    42    13    38 1
    43    14    39 1
    44    15    40 1
    45    16    41 1
    46    21    42 1
    47    21    43 1
    48    21    44 1
    49    22    45 1
    50    23    46 1
    51    23    47 1
    52    24    48 1
    53    24    49 1
    54    27    50 1
    55    28    51 1
    56    29    52 1
@<TRIPOS>SUBSTRUCTURE
     1 5LR         1 TEMP              0 ****  ****    0 ROOT
