@<TRIPOS>MOLECULE
molecule
   30    30     1     0     0
SMALL
bcc


@<TRIPOS>ATOM
      1 C1           0.0000     0.0000     0.0000 c3         1 5LS       0.305900
      2 O1          -0.4760    -1.1940     0.6250 oh         1 5LS      -0.620800
      3 C2           1.5310     0.0000     0.0000 c3         1 5LS       0.166100
      4 O2           2.0090    -1.1670    -0.6710 os         1 5LS      -0.589500
      5 C3           2.0330     0.0000     1.4470 c3         1 5LS       0.136100
      6 C4           1.4510     1.2140     2.1790 c3         1 5LS       0.160100
      7 C5          -0.0760     1.1670     2.0940 c3         1 5LS       0.143100
      8 C6          -0.6640     2.4070     2.7700 c3         1 5LS       0.142400
      9 O3           3.4600     0.0750     1.4580 oh         1 5LS      -0.542800
     10 O4           1.8550     1.1850     3.5480 os         1 5LS      -0.604500
     11 O5          -0.4760     1.1370     0.7220 os         1 5LS      -0.429600
     12 O11         -2.0900     2.3110     2.7850 oh         1 5LS      -0.626800
     13 S1           2.3300    -0.9460    -2.1430 s6         1 5LS       1.562300
     14 S2           2.9190     2.2140     3.9030 s6         1 5LS       1.563300
     15 O7           3.6420    -0.1760    -2.2070 o          1 5LS      -0.743533
     16 O8           2.5920    -2.2310    -2.6930 o          1 5LS      -0.743533
     17 O9           1.3280    -0.0750    -2.6460 o          1 5LS      -0.743533
     18 O07          2.2390     3.5740     3.9320 o          1 5LS      -0.739867
     19 O08          3.3180     1.9360     5.2380 o          1 5LS      -0.739867
     20 O09          3.8280     2.2430     2.8100 o          1 5LS      -0.739867
     21 H1          -0.3590     0.0470    -1.0210 h2         1 5LS       0.101700
     22 H2          -1.2430    -1.5020     0.1710 ho         1 5LS       0.390000
     23 H3           1.8910     0.8880    -0.5060 h1         1 5LS       0.105700
     24 H4           1.7100    -0.9080     1.9410 h1         1 5LS       0.049700
     25 H5           1.8100     2.1230     1.7100 h1         1 5LS       0.097700
     26 H6          -0.4360     0.2740     2.5920 h1         1 5LS       0.059700
     27 H7          -0.3670     3.2920     2.2200 h1         1 5LS       0.054200
     28 H8          -0.2960     2.4730     3.7860 h1         1 5LS       0.054200
     29 H13          3.8160    -0.7340     1.7860 ho         1 5LS       0.387000
     30 H9          -2.4490     3.0440     3.2580 ho         1 5LS       0.382000
@<TRIPOS>BOND
     1     1    11 1   
     2     1     2 1   
     3     1     3 1   
     4     3     4 1   
     5     3     5 1   
     6     4    13 1   
     7     5     6 1   
     8     5     9 1   
     9     6     7 1   
    10     6    10 1   
    11     7     8 1   
    12     7    11 1   
    13     8    12 1   
    14    10    14 1   
    15    13    16 1   
    16    13    17 1   
    17    13    15 1   
    18    14    20 1   
    19    14    19 1   
    20    14    18 1   
    21     1    21 1   
    22     2    22 1   
    23     3    23 1   
    24     5    24 1   
    25     6    25 1   
    26     7    26 1   
    27     8    27 1   
    28     8    28 1   
    29     9    29 1   
    30    12    30 1   
@<TRIPOS>SUBSTRUCTURE
     1 5LS         1 TEMP              0 ****  ****    0 ROOT
