@<TRIPOS>MOLECULE
molecule
   39    40     1     0     0
SMALL
bcc


@<TRIPOS>ATOM
      1 C11          0.0000     0.0000     0.0000 c3         1 5LU       0.076000
      2 C14          1.5300     0.0000     0.0000 c3         1 5LU      -0.117400
      3 N1          -0.8430    -2.3040     1.2590 n          1 5LU      -0.185000
      4 C2           0.0440    -2.6530     0.2690 cc         1 5LU      -0.300600
      5 C3          -0.3180    -3.8730    -0.1650 cd         1 5LU       0.327200
      6 N4          -1.3950    -4.2670     0.5320 nd         1 5LU      -0.696000
      7 C5          -1.7210    -3.3390     1.3880 cc         1 5LU       0.457400
      8 C8          -0.8430    -1.1590     1.9700 c          1 5LU       0.681900
      9 O9          -1.1620    -1.1730     3.1420 o          1 5LU      -0.579100
     10 N10         -0.4880     0.0000     1.3810 n          1 5LU      -0.488800
     11 C17          2.0390     0.1050    -1.4390 c3         1 5LU      -0.095100
     12 C21         -0.5900     1.2600     2.1220 c3         1 5LU       0.125000
     13 C24         -1.9770     1.8680     1.9030 c3         1 5LU       0.121400
     14 O27         -2.9690     1.0130     2.4730 os         1 5LU      -0.319900
     15 C28         -6.9020     2.2220     2.1440 ca         1 5LU       0.034400
     16 C29         -6.3370     1.4330     1.1580 ca         1 5LU      -0.109000
     17 C30         -5.0190     1.0280     1.2660 ca         1 5LU       0.020900
     18 C31         -4.2650     1.4120     2.3650 ca         1 5LU       0.123100
     19 C32         -4.8340     2.2020     3.3530 ca         1 5LU       0.020900
     20 C33         -6.1500     2.6090     3.2380 ca         1 5LU      -0.109000
     21 Cl2         -4.3110     0.0380     0.0280 cl         1 5LU      -0.073900
     22 Cl3         -3.8930     2.6840     4.7290 cl         1 5LU      -0.073900
     23 H1          -0.3610     0.8850    -0.5110 h1         1 5LU       0.067200
     24 H2          -0.3610    -0.8840    -0.5110 h1         1 5LU       0.067200
     25 H3           1.8910    -0.9190     0.4450 hc         1 5LU       0.052700
     26 H4           1.8910     0.8450     0.5740 hc         1 5LU       0.052700
     27 H5           0.8750    -2.0600    -0.0920 h4         1 5LU       0.192000
     28 H6           0.1740    -4.4410    -0.9450 h4         1 5LU       0.042100
     29 H7          -2.5490    -3.3830     2.0850 h5         1 5LU       0.085100
     30 H8           1.4430    -0.5320    -2.0810 hc         1 5LU       0.039367
     31 H9           1.9610     1.1320    -1.7760 hc         1 5LU       0.039367
     32 H10          3.0750    -0.2100    -1.4790 hc         1 5LU       0.039367
     33 H11          0.1670     1.9490     1.7690 h1         1 5LU       0.077700
     34 H12         -0.4420     1.0700     3.1790 h1         1 5LU       0.077700
     35 H13         -2.0230     2.8410     2.3780 h1         1 5LU       0.039700
     36 H14         -2.1600     1.9760     0.8410 h1         1 5LU       0.039700
     37 H15         -6.9270     1.1320     0.3010 ha         1 5LU       0.164000
     38 H16         -6.5950     3.2260     4.0100 ha         1 5LU       0.164000
     39 Cl1         -8.5560     2.7300     2.0060 cl         1 5LU      -0.084400
@<TRIPOS>BOND
     1     2    11 1
     2     2     1 1
     3     1    10 1
     4    21    17 1
     5     9     8 2
     6    10     8 1
     7    10    12 1
     8     8     3 1
     9    12    13 1
    10    17    16 ar
    11    17    18 ar
    12    13    14 1
    13    14    18 1
    14    16    15 ar
    15     3     7 1
    16     3     4 1
    17    18    19 ar
    18     7     6 2
    19     4     5 2
    20    15    39 1
    21    15    20 ar
    22     6     5 1
    23    19    20 ar
    24    19    22 1
    25     1    23 1
    26     1    24 1
    27     2    25 1
    28     2    26 1
    29     4    27 1
    30     5    28 1
    31     7    29 1
    32    11    30 1
    33    11    31 1
    34    11    32 1
    35    12    33 1
    36    12    34 1
    37    13    35 1
    38    13    36 1
    39    16    37 1
    40    20    38 1
@<TRIPOS>SUBSTRUCTURE
     1 5LU         1 TEMP              0 ****  ****    0 ROOT
