@<TRIPOS>MOLECULE
5LU
   39    40     1     0     0
SMALL
bcc


@<TRIPOS>ATOM
      1 C11          0.0000     0.0000     0.0000 c3         1 5LU      -0.008000
      2 C14          1.5300     0.0000     0.0000 c3         1 5LU      -0.063400
      3 N1          -0.8430    -2.3040     1.2590 n          1 5LU       0.298000
      4 C2           0.0440    -2.6530     0.2690 cc         1 5LU      -0.484600
      5 C3          -0.3180    -3.8730    -0.1650 cd         1 5LU       0.349200
      6 N4          -1.3950    -4.2670     0.5320 nd         1 5LU      -0.622000
      7 C5          -1.7210    -3.3390     1.3880 cc         1 5LU       0.288400
      8 C8          -0.8430    -1.1590     1.9700 c          1 5LU       0.466900
      9 O9          -1.1620    -1.1730     3.1420 o          1 5LU      -0.619100
     10 N10         -0.4880     0.0000     1.3810 n          1 5LU      -0.140800
     11 C17          2.0390     0.1050    -1.4390 c3         1 5LU       0.007900
     12 C21         -0.5900     1.2600     2.1220 c3         1 5LU       0.055000
     13 C24         -1.9770     1.8680     1.9030 c3         1 5LU       0.187400
     14 O27         -2.9690     1.0130     2.4730 os         1 5LU      -0.305900
     15 C28         -6.9020     2.2220     2.1440 ca         1 5LU      -0.030600
     16 C29         -6.3370     1.4330     1.1580 ca         1 5LU      -0.087000
     17 C30         -5.0190     1.0280     1.2660 ca         1 5LU      -0.048600
     18 C31         -4.2650     1.4120     2.3650 ca         1 5LU       0.123100
     19 C32         -4.8340     2.2020     3.3530 ca         1 5LU      -0.048600
     20 C33         -6.1500     2.6090     3.2380 ca         1 5LU      -0.087000
     21 Cl2         -4.3110     0.0380     0.0280 cl         1 5LU       0.007600
     22 Cl3         -3.8930     2.6840     4.7290 cl         1 5LU       0.007600
     23 H1          -0.3610     0.8850    -0.5110 h1         1 5LU       0.049200
     24 H2          -0.3610    -0.8840    -0.5110 h1         1 5LU       0.049200
     25 H3           1.8910    -0.9190     0.4450 hc         1 5LU       0.027200
     26 H4           1.8910     0.8450     0.5740 hc         1 5LU       0.027200
     27 H5           0.8750    -2.0600    -0.0920 h4         1 5LU       0.187000
     28 H6           0.1740    -4.4410    -0.9450 h4         1 5LU       0.002100
     29 H7          -2.5490    -3.3830     2.0850 h5         1 5LU       0.038100
     30 H8           1.4430    -0.5320    -2.0810 hc         1 5LU       0.006700
     31 H9           1.9610     1.1320    -1.7760 hc         1 5LU       0.006700
     32 H10          3.0750    -0.2100    -1.4790 hc         1 5LU       0.006700
     33 H11          0.1670     1.9490     1.7690 h1         1 5LU       0.046700
     34 H12         -0.4420     1.0700     3.1790 h1         1 5LU       0.046700
     35 H13         -2.0230     2.8410     2.3780 h1         1 5LU       0.003700
     36 H14         -2.1600     1.9760     0.8410 h1         1 5LU       0.003700
     37 H15         -6.9270     1.1320     0.3010 ha         1 5LU       0.129000
     38 H16         -6.5950     3.2260     4.0100 ha         1 5LU       0.129000
     39 Cl1         -8.5560     2.7300     2.0060 cl         1 5LU      -0.005400
@<TRIPOS>BOND
     1     1     2 1   
     2     1    10 1   
     3     1    23 1   
     4     1    24 1   
     5     2    11 1   
     6     2    25 1   
     7     2    26 1   
     8     3     4 1   
     9     3     7 1   
    10     3     8 1   
    11     4     5 2   
    12     4    27 1   
    13     5     6 1   
    14     5    28 1   
    15     6     7 2   
    16     7    29 1   
    17     8     9 2   
    18     8    10 1   
    19    10    12 1   
    20    11    30 1   
    21    11    31 1   
    22    11    32 1   
    23    12    13 1   
    24    12    33 1   
    25    12    34 1   
    26    13    14 1   
    27    13    35 1   
    28    13    36 1   
    29    14    18 1   
    30    15    16 ar  
    31    15    20 ar  
    32    15    39 1   
    33    16    17 ar  
    34    16    37 1   
    35    17    18 ar  
    36    17    21 1   
    37    18    19 ar  
    38    19    20 ar  
    39    19    22 1   
    40    20    38 1   
@<TRIPOS>SUBSTRUCTURE
     1 5LU         1 TEMP              0 ****  ****    0 ROOT
