@<TRIPOS>MOLECULE
molecule
   44    47     1     0     0
SMALL
bcc


@<TRIPOS>ATOM
      1 C7           0.0000     0.0000     0.0000 ca         1 5LW       0.104400
      2 C5           2.0750     0.0000     1.2020 ca         1 5LW       0.156100
      3 C3          -0.0040    -0.0010     2.3970 ca         1 5LW      -0.074000
      4 C4           1.3770    -0.0010     2.4020 ca         1 5LW      -0.210000
      5 C6           1.3830     0.0000     0.0000 ca         1 5LW      -0.155000
      6 C9           4.0690     0.0980     2.4010 ca         1 5LW       0.096100
      7 O8           3.4330    -0.0000     1.2040 os         1 5LW      -0.242200
      8 C10          4.1360    -1.0010     3.2460 ca         1 5LW      -0.129500
      9 C11          4.7870    -0.9010     4.4600 ca         1 5LW      -0.112500
     10 C12         -0.6930     0.0000     1.1970 ca         1 5LW      -0.119300
     11 C13          5.3730     0.2960     4.8350 ca         1 5LW       0.026400
     12 C14          5.3070     1.3930     3.9940 ca         1 5LW      -0.112500
     13 C15         -2.2000    -0.0010     1.1950 c3         1 5LW       0.371900
     14 O16         -2.6800    -1.1700     0.5200 os         1 5LW      -0.377600
     15 O17         -2.6820     1.1640     0.5040 os         1 5LW      -0.403600
     16 C18          4.6570     1.2970     2.7800 ca         1 5LW      -0.129500
     17 Cl1          6.1900     0.4200     6.3600 cl         1 5LW      -0.099400
     18 Cl2         -0.8680     0.0080    -1.5040 cl         1 5LW      -0.091400
     19 C22         -3.4820    -0.7240    -0.5920 c3         1 5LW       0.093400
     20 C23         -3.8740     0.7190    -0.1860 c3         1 5LW       0.096100
     21 C25         -2.7160     0.0110     2.6350 c3         1 5LW       0.051300
     22 N28         -2.3180    -1.2300     3.3060 na         1 5LW      -0.069400
     23 N29         -2.5570    -2.5400     2.8630 nc         1 5LW      -0.508800
     24 C30         -2.0370    -3.3420     3.7550 cd         1 5LW       0.554900
     25 N31         -1.4890    -2.6110     4.7250 nd         1 5LW      -0.760000
     26 C32         -1.6450    -1.3390     4.4650 cc         1 5LW       0.429400
     27 C40         -4.1480     1.5800    -1.4200 c3         1 5LW      -0.086100
     28 H1          -0.5480    -0.0010     3.3330 ha         1 5LW       0.140000
     29 H2           1.9160    -0.0020     3.3420 ha         1 5LW       0.151000
     30 H3           1.9250     0.0000    -0.9380 ha         1 5LW       0.161000
     31 H4           3.6780    -1.9380     2.9530 ha         1 5LW       0.153500
     32 H5           4.8390    -1.7590     5.1190 ha         1 5LW       0.152000
     33 H6           5.7660     2.3290     4.2900 ha         1 5LW       0.152000
     34 H7           4.6060     2.1570     2.1230 ha         1 5LW       0.153500
     35 H8          -2.8980    -0.7170    -1.5040 h1         1 5LW       0.067200
     36 H9          -4.3640    -1.3430    -0.6980 h1         1 5LW       0.067200
     37 H10         -4.7240     0.7110     0.4850 h1         1 5LW       0.055700
     38 H11         -2.2950     0.8580     3.1630 h1         1 5LW       0.075700
     39 H12         -3.7970     0.0890     2.6310 h1         1 5LW       0.075700
     40 H13         -2.0520    -4.4240     3.7130 h5         1 5LW       0.080100
     41 H14         -1.3000    -0.5170     5.0800 h5         1 5LW       0.067100
     42 H15         -5.0000     1.1810    -1.9570 hc         1 5LW       0.050033
     43 H16         -3.2780     1.5730    -2.0660 hc         1 5LW       0.050033
     44 H17         -4.3600     2.5970    -1.1110 hc         1 5LW       0.050033
@<TRIPOS>BOND
     1    17    11 1
     2     9    11 ar
     3     9     8 ar
     4    11    12 ar
     5     8     6 ar
     6    12    16 ar
     7     6    16 ar
     8     6     7 1
     9     7     2 1
    10     5     2 ar
    11     5     1 ar
    12     2     4 ar
    13    18     1 1
    14     1    10 ar
    15     4     3 ar
    16    10     3 ar
    17    10    13 1
    18    27    20 1
    19    15    13 1
    20    15    20 1
    21    13    14 1
    22    13    21 1
    23    20    19 1
    24    19    14 1
    25    23    22 1
    26    23    24 2
    27    21    22 1
    28    22    26 1
    29    24    25 1
    30    26    25 2
    31     3    28 1
    32     4    29 1
    33     5    30 1
    34     8    31 1
    35     9    32 1
    36    12    33 1
    37    16    34 1
    38    19    35 1
    39    19    36 1
    40    20    37 1
    41    21    38 1
    42    21    39 1
    43    24    40 1
    44    26    41 1
    45    27    42 1
    46    27    43 1
    47    27    44 1
@<TRIPOS>SUBSTRUCTURE
     1 5LW         1 TEMP              0 ****  ****    0 ROOT
