@<TRIPOS>MOLECULE
molecule
   44    47     1     0     0
SMALL
bcc


@<TRIPOS>ATOM
      1 C3           0.0000     0.0000     0.0000 ca         1 5LX      -0.041000
      2 C4           1.3810     0.0000     0.0000 ca         1 5LX      -0.214000
      3 C5           2.0750     0.0000     1.2010 ca         1 5LX       0.155100
      4 C6           1.3780     0.0000     2.4010 ca         1 5LX      -0.158000
      5 C10          4.6240    -1.0500    -0.5690 ca         1 5LX      -0.128000
      6 C15         -2.2000     0.0050     1.1940 c3         1 5LX       0.371900
      7 C14          4.8270     1.3940    -1.8550 ca         1 5LX      -0.112500
      8 C13          5.3670     0.2580    -2.4320 ca         1 5LX       0.027400
      9 C12         -0.6930    -0.0010     1.1960 ca         1 5LX      -0.135300
     10 C11          5.2700    -0.9620    -1.7860 ca         1 5LX      -0.112500
     11 C9           4.0730     0.0850     0.0070 ca         1 5LX       0.097100
     12 C7          -0.0040    -0.0000     2.3970 ca         1 5LX       0.076400
     13 O8           3.4330     0.0000     1.2040 os         1 5LX      -0.243200
     14 O16         -2.6780     1.0770     2.0230 os         1 5LX      -0.398600
     15 O17         -2.6780     0.2050    -0.1420 os         1 5LX      -0.389600
     16 C18          4.1760     1.3090    -0.6400 ca         1 5LX      -0.128000
     17 Cl2         -0.8770    -0.0000     3.8970 cl         1 5LX      -0.092400
     18 C22         -3.8680     1.5600     1.3530 c3         1 5LX       0.090400
     19 C23         -3.4740     1.4070    -0.1370 c3         1 5LX       0.101100
     20 C25         -2.7190    -1.3300     1.7310 c3         1 5LX       0.050300
     21 N28         -2.2480    -2.4190     0.8720 na         1 5LX      -0.063400
     22 N29         -2.4150    -2.5280    -0.5190 nc         1 5LX      -0.528800
     23 C30         -1.8440    -3.6470    -0.8810 cd         1 5LX       0.554900
     24 N31         -1.3320    -4.2400     0.1960 nd         1 5LX      -0.767000
     25 C32         -1.5630    -3.5100     1.2570 cc         1 5LX       0.445400
     26 C40         -4.7190     1.2360    -1.0100 c3         1 5LX      -0.092100
     27 H1          -0.5410     0.0000    -0.9390 ha         1 5LX       0.167000
     28 H2           1.9230     0.0000    -0.9380 ha         1 5LX       0.151000
     29 H3           1.9170     0.0000     3.3410 ha         1 5LX       0.160000
     30 H4           4.5480    -2.0050    -0.0630 ha         1 5LX       0.153000
     31 H5           4.9060     2.3480    -2.3610 ha         1 5LX       0.151000
     32 H6           5.6970    -1.8500    -2.2380 ha         1 5LX       0.151000
     33 H7           3.7500     2.1980    -0.1900 ha         1 5LX       0.153000
     34 H8          -4.7230     0.9400     1.5920 h1         1 5LX       0.065700
     35 H9          -4.0530     2.5990     1.5980 h1         1 5LX       0.065700
     36 H10         -2.8840     2.2550    -0.4640 h1         1 5LX       0.064700
     37 H11         -2.3520    -1.4810     2.7390 h1         1 5LX       0.079700
     38 H12         -3.8020    -1.3190     1.7390 h1         1 5LX       0.079700
     39 H13         -1.7970    -4.0300    -1.8930 h5         1 5LX       0.076100
     40 H14         -1.2610    -3.7460     2.2700 h5         1 5LX       0.069100
     41 H15         -5.3250     2.1330    -0.9540 hc         1 5LX       0.049367
     42 H16         -5.2940     0.3890    -0.6570 hc         1 5LX       0.049367
     43 H17         -4.4200     1.0670    -2.0370 hc         1 5LX       0.049367
     44 Cl1          6.1780     0.3660    -3.9630 cl         1 5LX      -0.100400
@<TRIPOS>BOND
     1    44     8 1   
     2     8    10 ar  
     3     8     7 ar  
     4    10     5 ar  
     5     7    16 ar  
     6     5    11 ar  
     7    16    11 ar  
     8    11    13 1   
     9    13     3 1   
    10     4     3 ar  
    11     4    12 ar  
    12     3     2 ar  
    13    17    12 1   
    14    12     9 ar  
    15     2     1 ar  
    16     1     9 ar  
    17     9     6 1   
    18    14     6 1   
    19    14    18 1   
    20     6    15 1   
    21     6    20 1   
    22    18    19 1   
    23    19    15 1   
    24    19    26 1   
    25    22    21 1   
    26    22    23 2   
    27    20    21 1   
    28    21    25 1   
    29    23    24 1   
    30    25    24 2   
    31     1    27 1   
    32     2    28 1   
    33     4    29 1   
    34     5    30 1   
    35     7    31 1   
    36    10    32 1   
    37    16    33 1   
    38    18    34 1   
    39    18    35 1   
    40    19    36 1   
    41    20    37 1   
    42    20    38 1   
    43    23    39 1   
    44    25    40 1   
    45    26    41 1   
    46    26    42 1   
    47    26    43 1   
@<TRIPOS>SUBSTRUCTURE
     1 5LX         1 TEMP              0 ****  ****    0 ROOT
