@<TRIPOS>MOLECULE
molecule
   44    47     1     0     0
SMALL
bcc


@<TRIPOS>ATOM
      1 C4           0.0000     0.0000     0.0000 ca         1 5LY      -0.133000
      2 C5           1.3880     0.0000     0.0000 ca         1 5LY       0.123100
      3 C7           1.3860     0.0000     2.3970 ca         1 5LY       0.081400
      4 C13          4.2490    -3.3650    -2.1520 ca         1 5LY      -0.003600
      5 C22          0.1510    -0.7210     5.7070 c3         1 5LY       0.107400
      6 C25         -2.2580    -0.0020     3.4210 c3         1 5LY       0.051300
      7 C23         -0.4020     0.7200     5.8390 c3         1 5LY       0.097100
      8 C14          4.3260    -2.2370    -2.9480 ca         1 5LY      -0.086500
      9 C12          0.0020    -0.0040     2.3940 ca         1 5LY      -0.093300
     10 C11          3.4410    -3.3670    -1.0280 ca         1 5LY      -0.086500
     11 C9           2.7860    -1.1090    -1.4980 ca         1 5LY       0.131100
     12 C30         -3.6790    -0.5510     6.6830 cc         1 5LY       0.556900
     13 C32         -3.9230     0.8810     5.0820 cd         1 5LY       0.448400
     14 C3          -0.6890     0.0000     1.1970 ca         1 5LY      -0.100000
     15 C6           2.0800     0.0000     1.2020 ca         1 5LY      -0.154000
     16 O8           2.0680    -0.0000    -1.1770 os         1 5LY      -0.243200
     17 C10          2.7100    -2.2420    -0.7010 ca         1 5LY      -0.171500
     18 C15         -0.7530    -0.0040     3.6990 c3         1 5LY       0.368900
     19 O16         -0.4070    -1.1710     4.4560 os         1 5LY      -0.390600
     20 O17         -0.4010     1.1630     4.4600 os         1 5LY      -0.405600
     21 C18          3.5970    -1.1090    -2.6240 ca         1 5LY      -0.171500
     22 Cl2          2.2500    -0.0040     3.9030 cl         1 5LY      -0.083400
     23 N28         -2.9880    -0.0020     4.6910 na         1 5LY      -0.067400
     24 N29         -2.8440    -0.9180     5.7460 nd         1 5LY      -0.540800
     25 N31         -4.3330     0.5360     6.2770 nc         1 5LY      -0.765000
     26 H1          -0.5420     0.0020    -0.9380 ha         1 5LY       0.153000
     27 H2          -0.1980    -1.3400     6.5240 h1         1 5LY       0.067200
     28 H3           1.2330    -0.7110     5.6590 h1         1 5LY       0.067200
     29 H4          -2.5190     0.8830     2.8540 h1         1 5LY       0.078700
     30 H5          -2.5210    -0.8860     2.8530 h1         1 5LY       0.078700
     31 H6          -1.4090     0.7090     6.2380 h1         1 5LY       0.070700
     32 H7           4.9590    -2.2370    -3.8270 ha         1 5LY       0.149500
     33 H8           3.3810    -4.2520    -0.4060 ha         1 5LY       0.149500
     34 H10         -4.2810     1.7260     4.5070 h5         1 5LY       0.072100
     35 H11         -1.7720    -0.0010     1.1980 ha         1 5LY       0.142000
     36 H12          3.1640     0.0020     1.2040 ha         1 5LY       0.163000
     37 H13          2.0770    -2.2440     0.1790 ha         1 5LY       0.152000
     38 H14          3.6580    -0.2260    -3.2480 ha         1 5LY       0.152000
     39 C40          0.5250     1.5860     6.6940 c3         1 5LY      -0.087100
     40 Cl1          5.1610    -4.7820    -2.5660 cl         1 5LY      -0.106400
     41 H9          -3.8180    -1.0510     7.6330 h5         1 5LY       0.079100
     42 H15          0.0680     2.5550     6.8550 hc         1 5LY       0.049367
     43 H16          0.6920     1.1030     7.6500 hc         1 5LY       0.049367
     44 H17          1.4720     1.7140     6.1840 hc         1 5LY       0.049367
@<TRIPOS>BOND
     1    40     4 1
     2     8     4 ar
     3     8    21 ar
     4     4    10 ar
     5    21    11 ar
     6    10    17 ar
     7    11    17 ar
     8    11    16 1
     9    16     2 1
    10    15     2 ar
    11    15     3 ar
    12     2     1 ar
    13    22     3 1
    14     3     9 ar
    15     1    14 ar
    16     9    14 ar
    17     9    18 1
    18    19     5 1
    19    19    18 1
    20     5     7 1
    21    18    20 1
    22    18     6 1
    23    20     7 1
    24    24    23 1
    25    24    12 2
    26     6    23 1
    27     7    39 1
    28    23    13 1
    29    12    25 1
    30    13    25 2
    31     1    26 1
    32     5    27 1
    33     5    28 1
    34     6    29 1
    35     6    30 1
    36     7    31 1
    37     8    32 1
    38    10    33 1
    39    12    41 1
    40    13    34 1
    41    14    35 1
    42    15    36 1
    43    17    37 1
    44    21    38 1
    45    39    42 1
    46    39    43 1
    47    39    44 1
@<TRIPOS>SUBSTRUCTURE
     1 5LY         1 TEMP              0 ****  ****    0 ROOT
