@<TRIPOS>MOLECULE
molecule
   44    47     1     0     0
SMALL
bcc


@<TRIPOS>ATOM
      1 C4           0.0000     0.0000     0.0000 ca         1 5LZ      -0.133000
      2 C5           1.3880     0.0000     0.0000 ca         1 5LZ       0.123100
      3 C6           2.0800     0.0000     1.2020 ca         1 5LZ      -0.153000
      4 C3          -0.6900    -0.0010     1.1960 ca         1 5LZ      -0.100000
      5 C7           1.3850    -0.0010     2.3980 ca         1 5LZ       0.081400
      6 O8           2.0680     0.0010    -1.1770 os         1 5LZ      -0.243200
      7 C9           2.7860    -1.1070    -1.4990 ca         1 5LZ       0.132100
      8 C10          3.6010    -1.1040    -2.6220 ca         1 5LZ      -0.171500
      9 C11          4.3350    -2.2300    -2.9440 ca         1 5LZ      -0.086500
     10 C12          0.0020    -0.0070     2.3940 ca         1 5LZ      -0.093300
     11 C13          4.2580    -3.3580    -2.1480 ca         1 5LZ      -0.002600
     12 C14          3.4450    -3.3630    -1.0280 ca         1 5LZ      -0.086500
     13 C15         -0.7530    -0.0080     3.6990 c3         1 5LZ       0.368900
     14 O16         -0.4020     1.1590     4.4610 os         1 5LZ      -0.406600
     15 O17         -0.4060    -1.1760     4.4550 os         1 5LZ      -0.391600
     16 C18          2.7100    -2.2400    -0.7020 ca         1 5LZ      -0.171500
     17 Cl1          5.1800    -4.7710    -2.5560 cl         1 5LZ      -0.107400
     18 Cl2          2.2500    -0.0020     3.9030 cl         1 5LZ      -0.082400
     19 C22         -0.4030     0.7160     5.8390 c3         1 5LZ       0.094400
     20 C23          0.1510    -0.7240     5.7070 c3         1 5LZ       0.110100
     21 C25         -2.2580    -0.0070     3.4210 c3         1 5LZ       0.050300
     22 N28         -2.9890    -0.0080     4.6910 na         1 5LZ      -0.066400
     23 N29         -2.8460    -0.9260     5.7440 nc         1 5LZ      -0.539800
     24 C30         -3.6820    -0.5610     6.6800 cd         1 5LZ       0.554900
     25 N31         -4.3360     0.5270     6.2760 nd         1 5LZ      -0.764000
     26 C32         -3.9250     0.8740     5.0820 cc         1 5LZ       0.448400
     27 C40         -0.3370    -1.6000     6.8620 c3         1 5LZ      -0.089100
     28 H1          -0.5420     0.0020    -0.9380 ha         1 5LZ       0.153000
     29 H2           3.1630     0.0020     1.2040 ha         1 5LZ       0.163000
     30 H3          -1.7730    -0.0030     1.1960 ha         1 5LZ       0.142000
     31 H4           3.6630    -0.2200    -3.2460 ha         1 5LZ       0.152000
     32 H5           4.9720    -2.2280    -3.8210 ha         1 5LZ       0.149500
     33 H6           3.3860    -4.2480    -0.4060 ha         1 5LZ       0.149500
     34 H7           2.0750    -2.2440     0.1750 ha         1 5LZ       0.152000
     35 H8           0.2560     1.3290     6.4410 h1         1 5LZ       0.069700
     36 H9          -1.4100     0.7070     6.2400 h1         1 5LZ       0.069700
     37 H10          1.2330    -0.7120     5.6580 h1         1 5LZ       0.067700
     38 H11         -2.5210    -0.8910     2.8520 h1         1 5LZ       0.078700
     39 H12         -2.5200     0.8780     2.8540 h1         1 5LZ       0.078700
     40 H13         -3.8210    -1.0630     7.6290 h5         1 5LZ       0.079100
     41 H14         -4.2820     1.7200     4.5070 h5         1 5LZ       0.072100
     42 H15         -1.0360    -2.3370     6.4860 hc         1 5LZ       0.049700
     43 H16          0.5090    -2.1030     7.3160 hc         1 5LZ       0.049700
     44 H17         -0.8280    -0.9810     7.6030 hc         1 5LZ       0.049700
@<TRIPOS>BOND
     1    17    11 1   
     2     9    11 ar  
     3     9     8 ar  
     4    11    12 ar  
     5     8     7 ar  
     6    12    16 ar  
     7     7    16 ar  
     8     7     6 1   
     9     6     2 1   
    10     3     2 ar  
    11     3     5 ar  
    12     2     1 ar  
    13    18     5 1   
    14     5    10 ar  
    15     1     4 ar  
    16    10     4 ar  
    17    10    13 1   
    18    15    20 1   
    19    15    13 1   
    20    20    27 1   
    21    20    19 1   
    22    13    14 1   
    23    13    21 1   
    24    19    14 1   
    25    23    24 2   
    26    23    22 1   
    27    21    22 1   
    28    24    25 1   
    29    22    26 1   
    30    26    25 2   
    31     1    28 1   
    32     3    29 1   
    33     4    30 1   
    34     8    31 1   
    35     9    32 1   
    36    12    33 1   
    37    16    34 1   
    38    19    35 1   
    39    19    36 1   
    40    20    37 1   
    41    21    38 1   
    42    21    39 1   
    43    24    40 1   
    44    26    41 1   
    45    27    42 1   
    46    27    43 1   
    47    27    44 1   
@<TRIPOS>SUBSTRUCTURE
     1 5LZ         1 TEMP              0 ****  ****    0 ROOT
