@<TRIPOS>MOLECULE
molecule
   19    19     1     0     0
SMALL
bcc


@<TRIPOS>ATOM
      1 OAC          0.0000     0.0000     0.0000 o          1 5M0      -0.841800
      2 CAH          1.2150     0.0000     0.0000 c          1 5M0       0.887200
      3 OAD          1.8880     0.0000     1.1680 o          1 5M0      -0.841800
      4 CAK          1.9520    -0.0070    -1.2750 ca         1 5M0      -0.133600
      5 CAG          3.3450     0.1170    -1.2830 ca         1 5M0      -0.077000
      6 CAI          4.0280     0.1100    -2.4790 ca         1 5M0      -0.145300
      7 CAA          5.5290     0.2420    -2.4860 c3         1 5M0      -0.034800
      8 CAE          3.3420    -0.0190    -3.6770 ca         1 5M0      -0.137000
      9 CAF          1.9680    -0.1420    -3.6860 ca         1 5M0      -0.198000
     10 CAJ          1.2610    -0.1430    -2.4890 ca         1 5M0       0.193600
     11 NAB         -0.1210    -0.2670    -2.4960 nv         1 5M0      -0.943200
     12 H2           3.8900     0.1680    -0.3480 ha         1 5M0       0.152000
     13 H3           5.8280     1.0060    -1.7780 hc         1 5M0       0.025033
     14 H4           5.9770    -0.7040    -2.2070 hc         1 5M0       0.025033
     15 H5           5.8620     0.5210    -3.4790 hc         1 5M0       0.025033
     16 H6           3.8880    -0.0220    -4.6120 ha         1 5M0       0.098000
     17 H7           1.4400    -0.2440    -4.6260 ha         1 5M0       0.105000
     18 H8          -0.6830     0.4280    -2.9460 hn         1 5M0       0.420800
     19 H9          -0.5530    -1.0720    -2.0870 hn         1 5M0       0.420800
@<TRIPOS>BOND
     1     9     8 ar
     2     9    10 ar
     3    11    10 1
     4     8     6 ar
     5    10     4 ar
     6     6     7 1
     7     6     5 ar
     8     4     5 ar
     9     4     2 1
    10     1     2 1
    11     2     3 1
    12     5    12 1
    13     7    13 1
    14     7    14 1
    15     7    15 1
    16     8    16 1
    17     9    17 1
    18    11    18 1
    19    11    19 1
@<TRIPOS>SUBSTRUCTURE
     1 5M0         1 TEMP              0 ****  ****    0 ROOT
