@<TRIPOS>MOLECULE
5M0
   19    19     1     0     0
SMALL
bcc


@<TRIPOS>ATOM
      1 OAC          0.0000     0.0000     0.0000 o          1 5M0      -0.891300
      2 CAH          1.2150     0.0000     0.0000 c          1 5M0       0.981200
      3 OAD          1.8880     0.0000     1.1680 o          1 5M0      -0.891300
      4 CAK          1.9520    -0.0070    -1.2750 ca         1 5M0      -0.134600
      5 CAG          3.3450     0.1170    -1.2830 ca         1 5M0      -0.047000
      6 CAI          4.0280     0.1100    -2.4790 ca         1 5M0      -0.160300
      7 CAA          5.5290     0.2420    -2.4860 c3         1 5M0       0.077200
      8 CAE          3.3420    -0.0190    -3.6770 ca         1 5M0      -0.112000
      9 CAF          1.9680    -0.1420    -3.6860 ca         1 5M0      -0.181000
     10 CAJ          1.2610    -0.1430    -2.4890 ca         1 5M0       0.057600
     11 NAB         -0.1210    -0.2670    -2.4960 nv         1 5M0      -0.494200
     12 H2           3.8900     0.1680    -0.3480 ha         1 5M0       0.128000
     13 H3           5.8280     1.0060    -1.7780 hc         1 5M0      -0.007967
     14 H4           5.9770    -0.7040    -2.2070 hc         1 5M0      -0.007967
     15 H5           5.8620     0.5210    -3.4790 hc         1 5M0      -0.007967
     16 H6           3.8880    -0.0220    -4.6120 ha         1 5M0       0.080000
     17 H7           1.4400    -0.2440    -4.6260 ha         1 5M0       0.086000
     18 H8          -0.6830     0.4280    -2.9460 hn         1 5M0       0.263300
     19 H9          -0.5530    -1.0720    -2.0870 hn         1 5M0       0.263300
@<TRIPOS>BOND
     1     1     2 1   
     2     2     3 1   
     3     2     4 1   
     4     4     5 ar  
     5     4    10 ar  
     6     5     6 ar  
     7     5    12 1   
     8     6     7 1   
     9     6     8 ar  
    10     7    13 1   
    11     7    14 1   
    12     7    15 1   
    13     8     9 ar  
    14     8    16 1   
    15     9    10 ar  
    16     9    17 1   
    17    10    11 1   
    18    11    18 1   
    19    11    19 1   
@<TRIPOS>SUBSTRUCTURE
     1 5M0         1 TEMP              0 ****  ****    0 ROOT
