@<TRIPOS>MOLECULE
molecule
   15    15     1     0     0
SMALL
bcc


@<TRIPOS>ATOM
      1 C10          0.0000     0.0000     0.0000 c          1 5M1       0.906200
      2 C12          1.4650     0.0000     0.0000 cc         1 5M1      -0.118900
      3 O11         -0.6080     0.0000     1.0530 o          1 5M1      -0.840300
      4 C22          2.2820     0.0000     1.1120 cd         1 5M1      -0.207000
      5 C23          3.6010    -0.0010     0.6500 cd         1 5M1      -0.226000
      6 C24          3.5660    -0.0000    -0.7050 cc         1 5M1      -0.178600
      7 N25          2.2800    -0.0060    -1.1100 na         1 5M1      -0.124100
      8 C26          4.7700     0.0000    -1.6110 c3         1 5M1      -0.009800
      9 H19          1.9620    -0.0000     2.1470 ha         1 5M1       0.147000
     10 H20          4.4930     0.0010     1.2650 ha         1 5M1       0.115000
     11 H21          1.9680    -0.0070    -2.0620 hn         1 5M1       0.298700
     12 H22          4.9320    -0.9990    -1.9970 hc         1 5M1       0.026033
     13 H23          4.6020     0.6830    -2.4350 hc         1 5M1       0.026033
     14 H24          5.6430     0.3170    -1.0520 hc         1 5M1       0.026033
     15 O1          -0.6750     0.0060    -1.1680 o          1 5M1      -0.840300
@<TRIPOS>BOND
     1     1     2 1   
     2     1     3 1   
     3     2     4 2   
     4     2     7 1   
     5     4     5 1   
     6     5     6 2   
     7     6     8 1   
     8     6     7 1   
     9     4     9 1   
    10     5    10 1   
    11     7    11 1   
    12     8    12 1   
    13     8    13 1   
    14     8    14 1   
    15     1    15 1   
@<TRIPOS>SUBSTRUCTURE
     1 5M1         1 TEMP              0 ****  ****    0 ROOT
