@<TRIPOS>MOLECULE
5M1
   15    14     1     0     0
SMALL
bcc


@<TRIPOS>ATOM
      1 C10        -0.4310    0.2690    0.6500 c         1 5M1      0.838300
      2 C12         0.8160    0.3300   -0.2720 ce        1 5M1      0.380300
      3 O11        -0.6250    1.2560    1.4040 o         1 5M1     -0.815300
      4 C22         2.0110   -0.2340    0.4710 c3        1 5M1     -0.124600
      5 C23         3.2430   -0.2450   -0.2570 c1        1 5M1     -0.083100
      6 C24         4.2780   -0.2570   -0.8620 c1        1 5M1     -0.216100
      7 N25         0.7820    0.7930   -1.4630 n2        1 5M1     -0.788100
      8 C26         5.5060   -0.2700   -1.5820 c3        1 5M1      0.007000
      9 H19         1.7420   -1.2850    0.7790 hc        1 5M1      0.085700
     10 H20         2.1310    0.3750    1.4130 hc        1 5M1      0.085700
     11 H21         1.6580    0.7740   -1.9490 hn        1 5M1      0.337400
     12 H22         5.3240   -0.1050   -2.6760 hc        1 5M1      0.036367
     13 H23         6.1900    0.5390   -1.2150 hc        1 5M1      0.036367
     14 H24         6.0280   -1.2550   -1.4580 hc        1 5M1      0.036367
     15 O1         -1.1050   -0.7930    0.6200 o         1 5M1     -0.815300
@<TRIPOS>BOND
     1    1    2 1   
     2    1    3 1   
     3    1   15 1   
     4    2    4 1   
     5    2    7 2   
     6    4    5 1   
     7    4    9 1   
     8    4   10 1   
     9    5    6 3   
    10    6    8 1   
    11    7   11 1   
    12    8   12 1   
    13    8   13 1   
    14    8   14 1   
@<TRIPOS>SUBSTRUCTURE
     1 5M1         1 TEMP              0 ****  ****    0 ROOT
