@<TRIPOS>MOLECULE
molecule
   28    29     1     0     0
SMALL
bcc


@<TRIPOS>ATOM
      1 C10          0.0000     0.0000     0.0000 ca         1 5M2      -0.132800
      2 C13          4.2710    -0.1350     2.5010 ce         1 5M2      -0.499200
      3 C01          2.1530    -0.0010    -1.3010 c3         1 5M2      -0.037800
      4 C02          1.3920     0.0000     0.0000 ca         1 5M2       0.018700
      5 C03          2.0750     0.0000     1.2140 ca         1 5M2      -0.166600
      6 C04          1.3610     0.0000     2.4210 ca         1 5M2      -0.020000
      7 C05         -0.0020     0.0010     2.4230 ca         1 5M2      -0.207000
      8 C06         -0.7060     0.0020     1.2200 ca         1 5M2      -0.023200
      9 N07         -2.0450     0.0020     0.9120 na         1 5M2      -0.188400
     10 C08         -2.2120     0.0000    -0.4460 cd         1 5M2      -0.132100
     11 C09         -1.0170    -0.0050    -1.0560 cc         1 5M2      -0.185200
     12 C11          3.5510    -0.0010     1.2300 c          1 5M2       0.543900
     13 O12          4.1710     0.1090     0.1880 o          1 5M2      -0.629100
     14 C14          5.6240    -0.1360     2.5150 cf         1 5M2       0.254900
     15 O15          6.3140    -0.0130     1.3580 oh         1 5M2      -0.498100
     16 C16          6.3510    -0.2720     3.7990 c          1 5M2       0.834800
     17 O17          5.7330    -0.3820     4.8380 o          1 5M2      -0.787800
     18 O18          7.6980    -0.2720     3.8130 o          1 5M2      -0.787800
     19 H1           4.1300     0.8010     1.9740 ha         1 5M2       0.201000
     20 H2           1.4550    -0.0460    -2.1280 hc         1 5M2       0.048033
     21 H3           2.7420     0.9050    -1.3750 hc         1 5M2       0.048033
     22 H4           2.8100    -0.8620    -1.3340 hc         1 5M2       0.048033
     23 H5           1.6520    -0.0050     3.4640 ha         1 5M2       0.166000
     24 H6          -0.5400     0.0020     3.3640 ha         1 5M2       0.117000
     25 H7          -2.7880     0.0050     1.5820 hn         1 5M2       0.285700
     26 H8          -3.1690     0.0040    -0.9540 h4         1 5M2       0.150000
     27 H9          -0.8380    -0.0070    -2.1240 ha         1 5M2       0.147000
     28 H12          7.0280    -0.6290     1.3500 ho         1 5M2       0.435000
@<TRIPOS>BOND
     1     3     4 1
     2    13    12 2
     3    11     1 1
     4    11    10 2
     5     4     1 ar
     6     4     5 ar
     7    15    14 1
     8     1     8 ar
     9    10     9 1
    10    12     5 1
    11    12     2 1
    12     5     6 ar
    13     8     9 1
    14     8     7 ar
    15    14     2 2
    16    14    16 1
    17     6     7 ar
    18    17    16 1
    19    16    18 1
    20     2    19 1
    21     3    20 1
    22     3    21 1
    23     3    22 1
    24     6    23 1
    25     7    24 1
    26     9    25 1
    27    10    26 1
    28    11    27 1
    29    15    28 1
@<TRIPOS>SUBSTRUCTURE
     1 5M2         1 TEMP              0 ****  ****    0 ROOT
