@<TRIPOS>MOLECULE
5M6
   43    46     1     0     0
SMALL
bcc


@<TRIPOS>ATOM
      1 N3           0.0000     0.0000     0.0000 na         1 5M6       0.658300
      2 C6           3.8680     0.0010     0.3080 cc         1 5M6      -0.092700
      3 C7           3.1780     0.0010     1.4590 cd         1 5M6       0.049000
      4 C8           0.5960    -0.0010     2.1200 cd         1 5M6       0.426600
      5 C10         -0.8230     0.0010    -1.1340 ca         1 5M6      -0.155200
      6 C15         -2.0280    -0.6890    -1.1190 ca         1 5M6      -0.084000
      7 C17         -2.4490     0.0000    -3.3740 ca         1 5M6      -0.033600
      8 C20         -1.2510     0.6930    -3.3890 ca         1 5M6      -0.085000
      9 C22          0.5500     0.0030     3.6260 c3         1 5M6      -0.011400
     10 C24          9.3410     0.0020    -2.6990 c3         1 5M6      -0.050400
     11 C1           1.3690     0.0000     0.0000 cc         1 5M6      -0.084400
     12 C2           1.7830     0.0000     1.3220 cd         1 5M6      -0.303300
     13 N4          -0.4340     0.0050     1.3290 nc         1 5M6      -0.633800
     14 S5           2.7710     0.0010    -1.0630 ss         1 5M6      -0.240800
     15 C9           5.3300     0.0010     0.2100 c          1 5M6       0.636700
     16 N11          5.9240     0.0010    -1.0000 ns         1 5M6      -0.182900
     17 O12          6.0080     0.0010     1.2210 o          1 5M6      -0.652100
     18 O13          7.3690    -1.2130    -3.2090 os         1 5M6      -0.413600
     19 C14         -0.4380     0.6950    -2.2730 ca         1 5M6      -0.084000
     20 C16          7.3860     0.0020    -1.0980 c3         1 5M6       0.045000
     21 C18          7.7980     0.0010    -2.5710 c3         1 5M6       0.162100
     22 C19         -2.8380    -0.6870    -2.2380 ca         1 5M6      -0.085000
     23 Cl1         -3.4690     0.0010    -4.7780 cl         1 5M6      -0.015400
     24 C23          8.3500    -1.6370    -4.1630 c3         1 5M6       0.216400
     25 C25          9.5230    -0.6340    -4.1040 c3         1 5M6      -0.060400
     26 H1           3.6660     0.0010     2.4270 ha         1 5M6       0.136000
     27 H2          -2.3330    -1.2280    -0.2300 ha         1 5M6       0.127000
     28 H3          -0.9490     1.2330    -4.2790 ha         1 5M6       0.119500
     29 H4           1.0000    -0.9080     4.0030 hc         1 5M6       0.016700
     30 H5           1.0970     0.8590     4.0020 hc         1 5M6       0.016700
     31 H6          -0.4800     0.0600     3.9550 hc         1 5M6       0.016700
     32 H8           9.7940    -0.6160    -1.9320 hc         1 5M6       0.029700
     33 H9           5.3670     0.0270    -1.8310 hn         1 5M6       0.186500
     34 H10          0.5000     1.2370    -2.2860 ha         1 5M6       0.127000
     35 H11          7.7810    -0.8820    -0.6120 h1         1 5M6       0.033700
     36 H12          7.7800     0.8870    -0.6130 h1         1 5M6       0.033700
     37 H13          7.3800     0.8600    -3.0840 h1         1 5M6       0.019700
     38 H14         -3.7770    -1.2270    -2.2270 ha         1 5M6       0.119500
     39 H15          8.7030    -2.6290    -3.9090 h1         1 5M6       0.006200
     40 H16          7.9180    -1.6380    -5.1560 h1         1 5M6       0.006200
     41 H17         10.4730    -1.1500    -4.1730 hc         1 5M6       0.024200
     42 H18          9.4260     0.1160    -4.8800 hc         1 5M6       0.024200
     43 H7           9.7320     1.0120    -2.6770 hc         1 5M6       0.029700
@<TRIPOS>BOND
     1     1     5 1   
     2     1    11 1   
     3     1    13 1   
     4     2     3 2   
     5     2    14 1   
     6     2    15 1   
     7     3    12 1   
     8     3    26 1   
     9     4     9 1   
    10     4    12 1   
    11     4    13 2   
    12     5     6 ar  
    13     5    19 ar  
    14     6    22 ar  
    15     6    27 1   
    16     7     8 ar  
    17     7    22 ar  
    18     7    23 1   
    19     8    19 ar  
    20     8    28 1   
    21     9    29 1   
    22     9    30 1   
    23     9    31 1   
    24    10    21 1   
    25    10    25 1   
    26    10    32 1   
    27    10    43 1   
    28    11    12 2   
    29    11    14 1   
    30    15    16 1   
    31    15    17 2   
    32    16    20 1   
    33    16    33 1   
    34    18    21 1   
    35    18    24 1   
    36    19    34 1   
    37    20    21 1   
    38    20    35 1   
    39    20    36 1   
    40    21    37 1   
    41    22    38 1   
    42    24    25 1   
    43    24    39 1   
    44    24    40 1   
    45    25    41 1   
    46    25    42 1   
@<TRIPOS>SUBSTRUCTURE
     1 5M6         1 TEMP              0 ****  ****    0 ROOT
