@<TRIPOS>MOLECULE
molecule
   43    46     1     0     0
SMALL
bcc


@<TRIPOS>ATOM
      1 N3           0.0000     0.0000     0.0000 na         1 5M6       0.162300
      2 C6           3.8680     0.0010     0.3080 cc         1 5M6      -0.125700
      3 C7           3.1780     0.0010     1.4590 cd         1 5M6      -0.007000
      4 C8           0.5960    -0.0010     2.1200 cd         1 5M6       0.395600
      5 C10         -0.8230     0.0010    -1.1340 ca         1 5M6       0.037800
      6 C15         -2.0280    -0.6890    -1.1190 ca         1 5M6      -0.127000
      7 C17         -2.4490     0.0000    -3.3740 ca         1 5M6       0.020400
      8 C20         -1.2510     0.6930    -3.3890 ca         1 5M6      -0.105000
      9 C22          0.5500     0.0030     3.6260 c3         1 5M6      -0.115400
     10 C24          9.3410     0.0020    -2.6990 c3         1 5M6      -0.108400
     11 C1           1.3690     0.0000     0.0000 cc         1 5M6       0.053600
     12 C2           1.7830     0.0000     1.3220 cd         1 5M6      -0.286300
     13 N4          -0.4340     0.0050     1.3290 nc         1 5M6      -0.479800
     14 S5           2.7710     0.0010    -1.0630 ss         1 5M6      -0.117800
     15 C9           5.3300     0.0010     0.2100 c          1 5M6       0.708700
     16 N11          5.9240     0.0010    -1.0000 ns         1 5M6      -0.575900
     17 O12          6.0080     0.0010     1.2210 o          1 5M6      -0.608100
     18 O13          7.3690    -1.2130    -3.2090 os         1 5M6      -0.420600
     19 C14         -0.4380     0.6950    -2.2730 ca         1 5M6      -0.127000
     20 C16          7.3860     0.0020    -1.0980 c3         1 5M6       0.119000
     21 C18          7.7980     0.0010    -2.5710 c3         1 5M6       0.116100
     22 C19         -2.8380    -0.6870    -2.2380 ca         1 5M6      -0.105000
     23 Cl1         -3.4690     0.0010    -4.7780 cl         1 5M6      -0.101400
     24 C23          8.3500    -1.6370    -4.1630 c3         1 5M6       0.130400
     25 C25          9.5230    -0.6340    -4.1040 c3         1 5M6      -0.117400
     26 H1           3.6660     0.0010     2.4270 ha         1 5M6       0.172000
     27 H2          -2.3330    -1.2280    -0.2300 ha         1 5M6       0.154500
     28 H3          -0.9490     1.2330    -4.2790 ha         1 5M6       0.151500
     29 H4           1.0000    -0.9080     4.0030 hc         1 5M6       0.058033
     30 H5           1.0970     0.8590     4.0020 hc         1 5M6       0.058033
     31 H6          -0.4800     0.0600     3.9550 hc         1 5M6       0.058033
     32 H8           9.7940    -0.6160    -1.9320 hc         1 5M6       0.061200
     33 H9           5.3670     0.0270    -1.8310 hn         1 5M6       0.320500
     34 H10          0.5000     1.2370    -2.2860 ha         1 5M6       0.154500
     35 H11          7.7810    -0.8820    -0.6120 h1         1 5M6       0.062700
     36 H12          7.7800     0.8870    -0.6130 h1         1 5M6       0.062700
     37 H13          7.3800     0.8600    -3.0840 h1         1 5M6       0.050700
     38 H14         -3.7770    -1.2270    -2.2270 ha         1 5M6       0.151500
     39 H15          8.7030    -2.6290    -3.9090 h1         1 5M6       0.046700
     40 H16          7.9180    -1.6380    -5.1560 h1         1 5M6       0.046700
     41 H17         10.4730    -1.1500    -4.1730 hc         1 5M6       0.056200
     42 H18          9.4260     0.1160    -4.8800 hc         1 5M6       0.056200
     43 H7           9.7320     1.0120    -2.6770 hc         1 5M6       0.061200
@<TRIPOS>BOND
     1    24    25 1
     2    24    18 1
     3    25    10 1
     4    10    21 1
     5    18    21 1
     6    21    20 1
     7    20    16 1
     8    16    15 1
     9     9     4 1
    10     3     2 2
    11     3    12 1
    12    15    17 2
    13    15     2 1
    14     2    14 1
    15    12     4 1
    16    12    11 2
    17     4    13 2
    18    13     1 1
    19    11    14 1
    20    11     1 1
    21     1     5 1
    22     5     6 ar
    23     5    19 ar
    24     6    22 ar
    25    19     8 ar
    26    22     7 ar
    27     8     7 ar
    28     7    23 1
    29     3    26 1
    30     6    27 1
    31     8    28 1
    32     9    29 1
    33     9    30 1
    34     9    31 1
    35    10    43 1
    36    10    32 1
    37    16    33 1
    38    19    34 1
    39    20    35 1
    40    20    36 1
    41    21    37 1
    42    22    38 1
    43    24    39 1
    44    24    40 1
    45    25    41 1
    46    25    42 1
@<TRIPOS>SUBSTRUCTURE
     1 5M6         1 TEMP              0 ****  ****    0 ROOT
