@<TRIPOS>MOLECULE
molecule
   44    47     1     0     0
SMALL
bcc


@<TRIPOS>ATOM
      1 N1           0.0000     0.0000     0.0000 nb         1 5M7      -0.757000
      2 C2           1.3160     0.0000     0.0000 ca         1 5M7       0.639200
      3 C3           2.0520     0.0000     1.2060 ca         1 5M7      -0.133900
      4 C4           1.3630     0.0000     2.4280 cp         1 5M7      -0.015000
      5 C5          -0.7100    -0.0010     1.1350 ca         1 5M7       0.414600
      6 C6          -0.0540    -0.0010     2.3900 ca         1 5M7      -0.138300
      7 C7          -0.8100    -0.0000     3.5700 ca         1 5M7      -0.096000
      8 C8          -2.1720     0.0010     3.4990 ca         1 5M7       0.009400
      9 C9          -2.8210     0.0010     2.2660 ca         1 5M7      -0.142000
     10 C10         -2.1150    -0.0000     1.1010 ca         1 5M7      -0.159300
     11 C11          2.0920    -0.0000     3.7150 cp         1 5M7      -0.012000
     12 C12          2.8810     1.0930     4.0750 ca         1 5M7      -0.092000
     13 C13          1.9880    -1.0920     4.5790 ca         1 5M7      -0.092000
     14 C14          2.6650    -1.0840     5.7800 ca         1 5M7      -0.138500
     15 C15          3.5580     1.0870     5.2760 ca         1 5M7      -0.138500
     16 C16          3.4470     0.0040     6.1300 ca         1 5M7      -0.137000
     17 C17          3.5220    -0.0010     1.1800 c          1 5M7       0.897200
     18 O18          4.1970    -1.1660     1.2450 o          1 5M7      -0.821300
     19 O19          4.1290     1.0500     1.1010 o          1 5M7      -0.821300
     20 N20          1.9930    -0.0010    -1.2050 nh         1 5M7      -0.683300
     21 C21          1.6810     1.2050    -1.9840 c3         1 5M7       0.174800
     22 C22          1.7000    -1.2190    -1.9720 c3         1 5M7       0.174800
     23 C23          2.5740    -1.2540    -3.2280 c3         1 5M7      -0.079400
     24 C24          2.5550     1.2420    -3.2400 c3         1 5M7      -0.079400
     25 C25          2.2890    -0.0120    -4.0780 c3         1 5M7      -0.083400
     26 Cl1         -3.1070     0.0010     4.9610 cl         1 5M7      -0.146400
     27 H1          -0.3150     0.0000     4.5340 ha         1 5M7       0.151000
     28 H2          -3.9040     0.0010     2.2330 ha         1 5M7       0.127000
     29 H3          -2.6350    -0.0010     0.1510 ha         1 5M7       0.139000
     30 H4           2.9690     1.9420     3.4070 ha         1 5M7       0.143000
     31 H5           1.3770    -1.9440     4.3070 ha         1 5M7       0.143000
     32 H6           2.5840    -1.9290     6.4520 ha         1 5M7       0.117000
     33 H7           4.1710     1.9350     5.5560 ha         1 5M7       0.117000
     34 H8           3.9790     0.0040     7.0740 ha         1 5M7       0.110000
     35 H10          0.6370     1.1870    -2.2720 h1         1 5M7       0.041700
     36 H11          1.8790     2.0830    -1.3810 h1         1 5M7       0.041700
     37 H12          1.9130    -2.0880    -1.3610 h1         1 5M7       0.041700
     38 H13          0.6560    -1.2210    -2.2600 h1         1 5M7       0.041700
     39 H14          2.3440    -2.1440    -3.8020 hc         1 5M7       0.047200
     40 H15          3.6180    -1.2630    -2.9410 hc         1 5M7       0.047200
     41 H16          3.5990     1.2680    -2.9520 hc         1 5M7       0.047200
     42 H17          2.3130     2.1230    -3.8220 hc         1 5M7       0.047200
     43 H18          2.9380    -0.0110    -4.9450 hc         1 5M7       0.026700
     44 H19          1.2530    -0.0210    -4.3940 hc         1 5M7       0.026700
@<TRIPOS>BOND
     1    19    17 1   
     2    18    17 1   
     3    21    24 1   
     4    21    20 1   
     5    24    25 1   
     6    17     3 1   
     7    20    22 1   
     8    20     2 1   
     9    22    23 1   
    10    25    23 1   
    11     3     2 ar  
    12     3     4 ar  
    13    14    16 ar  
    14    14    13 ar  
    15    16    15 ar  
    16     2     1 ar  
    17    13    11 ar  
    18    15    12 ar  
    19    11    12 ar  
    20    11     4 1   
    21     4     6 ar  
    22     1     5 ar  
    23     6     5 ar  
    24     6     7 ar  
    25     5    10 ar  
    26     7     8 ar  
    27    10     9 ar  
    28     8     9 ar  
    29     8    26 1   
    30     7    27 1   
    31     9    28 1   
    32    10    29 1   
    33    12    30 1   
    34    13    31 1   
    35    14    32 1   
    36    15    33 1   
    37    16    34 1   
    38    21    35 1   
    39    21    36 1   
    40    22    37 1   
    41    22    38 1   
    42    23    39 1   
    43    23    40 1   
    44    24    41 1   
    45    24    42 1   
    46    25    43 1   
    47    25    44 1   
@<TRIPOS>SUBSTRUCTURE
     1 5M7         1 TEMP              0 ****  ****    0 ROOT
