@<TRIPOS>MOLECULE
5M7
   44    47     1     0     0
SMALL
bcc


@<TRIPOS>ATOM
      1 N1           0.0000     0.0000     0.0000 nb         1 5M7      -0.643000
      2 C2           1.3160     0.0000     0.0000 ca         1 5M7       0.522200
      3 C3           2.0520     0.0000     1.2060 ca         1 5M7      -0.126900
      4 C4           1.3630     0.0000     2.4280 cp         1 5M7      -0.010000
      5 C5          -0.7100    -0.0010     1.1350 ca         1 5M7       0.367600
      6 C6          -0.0540    -0.0010     2.3900 ca         1 5M7      -0.128300
      7 C7          -0.8100    -0.0000     3.5700 ca         1 5M7      -0.082000
      8 C8          -2.1720     0.0010     3.4990 ca         1 5M7      -0.041600
      9 C9          -2.8210     0.0010     2.2660 ca         1 5M7      -0.126000
     10 C10         -2.1150    -0.0000     1.1010 ca         1 5M7      -0.133300
     11 C11          2.0920    -0.0000     3.7150 cp         1 5M7      -0.004000
     12 C12          2.8810     1.0930     4.0750 ca         1 5M7      -0.070500
     13 C13          1.9880    -1.0920     4.5790 ca         1 5M7      -0.070500
     14 C14          2.6650    -1.0840     5.7800 ca         1 5M7      -0.112000
     15 C15          3.5580     1.0870     5.2760 ca         1 5M7      -0.112000
     16 C16          3.4470     0.0040     6.1300 ca         1 5M7      -0.116000
     17 C17          3.5220    -0.0010     1.1800 c          1 5M7       0.985200
     18 O18          4.1970    -1.1660     1.2450 o          1 5M7      -0.872300
     19 O19          4.1290     1.0500     1.1010 o          1 5M7      -0.872300
     20 N20          1.9930    -0.0010    -1.2050 nh         1 5M7      -0.474300
     21 C21          1.6810     1.2050    -1.9840 c3         1 5M7       0.152300
     22 C22          1.7000    -1.2190    -1.9720 c3         1 5M7       0.152300
     23 C23          2.5740    -1.2540    -3.2280 c3         1 5M7      -0.027400
     24 C24          2.5550     1.2420    -3.2400 c3         1 5M7      -0.027400
     25 C25          2.2890    -0.0120    -4.0780 c3         1 5M7      -0.027400
     26 Cl1         -3.1070     0.0010     4.9610 cl         1 5M7      -0.072400
     27 H1          -0.3150     0.0000     4.5340 ha         1 5M7       0.128000
     28 H2          -3.9040     0.0010     2.2330 ha         1 5M7       0.102000
     29 H3          -2.6350    -0.0010     0.1510 ha         1 5M7       0.108000
     30 H4           2.9690     1.9420     3.4070 ha         1 5M7       0.116000
     31 H5           1.3770    -1.9440     4.3070 ha         1 5M7       0.116000
     32 H6           2.5840    -1.9290     6.4520 ha         1 5M7       0.091500
     33 H7           4.1710     1.9350     5.5560 ha         1 5M7       0.091500
     34 H8           3.9790     0.0040     7.0740 ha         1 5M7       0.086000
     35 H10          0.6370     1.1870    -2.2720 h1         1 5M7       0.014200
     36 H11          1.8790     2.0830    -1.3810 h1         1 5M7       0.014200
     37 H12          1.9130    -2.0880    -1.3610 h1         1 5M7       0.014200
     38 H13          0.6560    -1.2210    -2.2600 h1         1 5M7       0.014200
     39 H14          2.3440    -2.1440    -3.8020 hc         1 5M7       0.018200
     40 H15          3.6180    -1.2630    -2.9410 hc         1 5M7       0.018200
     41 H16          3.5990     1.2680    -2.9520 hc         1 5M7       0.018200
     42 H17          2.3130     2.1230    -3.8220 hc         1 5M7       0.018200
     43 H18          2.9380    -0.0110    -4.9450 hc         1 5M7       0.000700
     44 H19          1.2530    -0.0210    -4.3940 hc         1 5M7       0.000700
@<TRIPOS>BOND
     1     1     2 ar  
     2     1     5 ar  
     3     2     3 ar  
     4     2    20 1   
     5     3     4 ar  
     6     3    17 1   
     7     4     6 ar  
     8     4    11 1   
     9     5     6 ar  
    10     5    10 ar  
    11     6     7 ar  
    12     7     8 ar  
    13     7    27 1   
    14     8     9 ar  
    15     8    26 1   
    16     9    10 ar  
    17     9    28 1   
    18    10    29 1   
    19    11    12 ar  
    20    11    13 ar  
    21    12    15 ar  
    22    12    30 1   
    23    13    14 ar  
    24    13    31 1   
    25    14    16 ar  
    26    14    32 1   
    27    15    16 ar  
    28    15    33 1   
    29    16    34 1   
    30    17    18 1   
    31    17    19 1   
    32    20    21 1   
    33    20    22 1   
    34    21    24 1   
    35    21    35 1   
    36    21    36 1   
    37    22    23 1   
    38    22    37 1   
    39    22    38 1   
    40    23    25 1   
    41    23    39 1   
    42    23    40 1   
    43    24    25 1   
    44    24    41 1   
    45    24    42 1   
    46    25    43 1   
    47    25    44 1   
@<TRIPOS>SUBSTRUCTURE
     1 5M7         1 TEMP              0 ****  ****    0 ROOT
