@<TRIPOS>MOLECULE
molecule
   32    34     1     0     0
SMALL
bcc


@<TRIPOS>ATOM
      1 C5           0.0000     0.0000     0.0000 ca         1 5M8       0.471600
      2 C6          -0.0940    -0.0010     2.3140 ca         1 5M8       0.410600
      3 C7           2.1490     0.0020    -1.2710 c          1 5M8       0.882200
      4 C8           1.9290    -0.0020     3.6750 ca         1 5M8      -0.094000
      5 C17          4.2860     1.0950     0.7860 ca         1 5M8      -0.089000
      6 C20          5.6640     1.0900     0.8390 ca         1 5M8      -0.139500
      7 C21          6.3360     0.0020     1.3680 ca         1 5M8      -0.139000
      8 C1           1.4040     0.0000     0.0000 ca         1 5M8      -0.167900
      9 C2           2.0910     0.0000     1.2250 cp         1 5M8      -0.010000
     10 C3           1.3190    -0.0010     2.4130 ca         1 5M8      -0.141300
     11 N4          -0.6860    -0.0010     1.1140 nb         1 5M8      -0.723000
     12 C9           3.5690     0.0000     1.2740 cp         1 5M8      -0.015000
     13 O10          2.4550     1.0550    -1.7950 o          1 5M8      -0.821800
     14 C11         -0.8590    -0.0020     3.4930 ca         1 5M8      -0.159300
     15 C12          1.1540    -0.0030     4.7980 ca         1 5M8       0.007400
     16 O13          2.4890    -1.1650    -1.8530 o          1 5M8      -0.821800
     17 C14         -0.2370    -0.0020     4.7040 ca         1 5M8      -0.142000
     18 Cl1          1.9090    -0.0050     6.3600 cl         1 5M8      -0.148400
     19 C16         -0.7340     0.0060    -1.3160 c3         1 5M8      -0.142400
     20 C18          4.2530    -1.0950     1.8060 ca         1 5M8      -0.089000
     21 C19          5.6310    -1.0880     1.8470 ca         1 5M8      -0.139500
     22 H1           3.0090    -0.0030     3.7580 ha         1 5M8       0.151000
     23 H4           7.4190     0.0170     1.3970 ha         1 5M8       0.110000
     24 H5          -1.9410    -0.0010     3.4380 ha         1 5M8       0.139000
     25 H7          -0.8320    -0.0030     5.6090 ha         1 5M8       0.126000
     26 H8          -1.8020    -0.0020    -1.1330 hc         1 5M8       0.056033
     27 H9          -0.4590    -0.8720    -1.8870 hc         1 5M8       0.056033
     28 H10         -0.4700     0.8970    -1.8730 hc         1 5M8       0.056033
     29 H11          3.7060    -1.9800     2.1080 ha         1 5M8       0.142500
     30 H12          6.1950    -1.9320     2.2270 ha         1 5M8       0.116500
     31 H2           3.7600     1.9800     0.4510 ha         1 5M8       0.142500
     32 H3           6.2230     1.9380     0.4620 ha         1 5M8       0.116500
@<TRIPOS>BOND
     1    13     3 1   
     2    16     3 1   
     3     3     8 1   
     4    19     1 1   
     5    21     7 ar  
     6    21    20 ar  
     7     8     1 ar  
     8     8     9 ar  
     9     7     6 ar  
    10    20    12 ar  
    11     1    11 ar  
    12     6     5 ar  
    13    12     5 ar  
    14    12     9 1   
    15     9    10 ar  
    16    11     2 ar  
    17    10     2 ar  
    18    10     4 ar  
    19     2    14 ar  
    20     4    15 ar  
    21    14    17 ar  
    22    15    17 ar  
    23    15    18 1   
    24     4    22 1   
    25     5    31 1   
    26     6    32 1   
    27     7    23 1   
    28    14    24 1   
    29    17    25 1   
    30    19    26 1   
    31    19    27 1   
    32    19    28 1   
    33    20    29 1   
    34    21    30 1   
@<TRIPOS>SUBSTRUCTURE
     1 5M8         1 TEMP              0 ****  ****    0 ROOT
