@<TRIPOS>MOLECULE
molecule
   47    50     1     0     0
SMALL
bcc


@<TRIPOS>ATOM
      1 C01          0.0000     0.0000     0.0000 cc         1 5M9      -0.031600
      2 C02          1.4040     0.0000     0.0000 cc         1 5M9      -0.091000
      3 C04         -0.6810     0.0050     1.1680 cd         1 5M9       0.023400
      4 C06          1.3490     0.0000     2.3880 cd         1 5M9       0.023700
      5 N09         -0.4400     0.0030     3.6920 nd         1 5M9      -0.608100
      6 C11          0.6630     1.4340     6.4590 c3         1 5M9      -0.099700
      7 C18          1.5100     1.4040    12.3840 c3         1 5M9       0.156800
      8 C19          2.5520     0.8710    13.3980 c3         1 5M9      -0.092400
      9 C20          3.3160    -0.1960    12.5800 c3         1 5M9      -0.092400
     10 C21          3.0810     0.1830    11.1060 c3         1 5M9       0.156800
     11 C22         -1.8070     1.4450     8.3400 c3         1 5M9       0.059600
     12 C23         -2.1870     0.0100     1.1560 c3         1 5M9      -0.055800
     13 C03          2.0760     0.0000     1.1850 cd         1 5M9      -0.062300
     14 N05         -0.0160     0.0050     2.3550 na         1 5M9       0.180000
     15 N07          1.7160    -0.0040     3.6650 nc         1 5M9      -0.451300
     16 C08          0.6400    -0.0030     4.4390 cc         1 5M9       0.568300
     17 C12          0.6760     1.4300     7.9670 cd         1 5M9       0.457800
     18 N13          1.7430     1.4250     8.7240 nc         1 5M9      -0.757000
     19 C14          1.3830     1.4230    10.0110 cc         1 5M9       0.752900
     20 N15          0.0740     1.4270    10.0840 nd         1 5M9      -0.588800
     21 N16         -0.4050     1.4370     8.7640 na         1 5M9      -0.063400
     22 N17          2.2570     1.4120    11.1000 nh         1 5M9      -0.645300
     23 Cl1         -0.8650     0.0000    -1.5050 cl         1 5M9      -0.075400
     24 H1           1.9490    -0.0040    -0.9360 ha         1 5M9       0.160000
     25 H2          -0.2300    -0.5150     6.3130 hc         1 5M9       0.075200
     26 H3           1.5390    -0.5220     6.2980 hc         1 5M9       0.075200
     27 H4           1.5460     1.9420     6.0920 hc         1 5M9       0.075700
     28 H5          -0.2230     1.9490     6.1070 hc         1 5M9       0.075700
     29 H6           1.2000     2.4070    12.6490 h1         1 5M9       0.056950
     30 H7           0.6600     0.7360    12.3250 h1         1 5M9       0.056950
     31 H8           2.0590     0.4180    14.2490 hc         1 5M9       0.051200
     32 H9           3.2210     1.6630    13.7100 hc         1 5M9       0.051200
     33 H10          2.9140    -1.1820    12.7830 hc         1 5M9       0.051200
     34 H11          4.3740    -0.1590    12.8120 hc         1 5M9       0.051200
     35 H12          4.0290     0.3730    10.6190 h1         1 5M9       0.056950
     36 H13          2.5520    -0.6170    10.6010 h1         1 5M9       0.056950
     37 H14         -1.9750     2.2730     7.6620 h1         1 5M9       0.056700
     38 H15         -2.0380     0.5140     7.8360 h1         1 5M9       0.056700
     39 H16         -2.4470     1.5530     9.2070 h1         1 5M9       0.056700
     40 H17         -2.5460     1.0190     1.3180 hc         1 5M9       0.067700
     41 H18         -2.5420    -0.3490     0.1980 hc         1 5M9       0.067700
     42 H19         -2.5570    -0.6360     1.9430 hc         1 5M9       0.067700
     43 H20          3.9580     0.3230     0.2420 hc         1 5M9       0.055700
     44 H21          3.9360     0.6680     1.9760 hc         1 5M9       0.055700
     45 H22          3.9390    -1.0070     1.4080 hc         1 5M9       0.055700
     46 C10          0.6530    -0.0070     5.9460 c3         1 5M9      -0.064700
     47 C24          3.5830    -0.0040     1.2040 c3         1 5M9      -0.035800
@<TRIPOS>BOND
     1     8     9 1
     2     8     7 1
     3     9    10 1
     4     7    22 1
     5    10    22 1
     6    22    19 1
     7    19    20 2
     8    19    18 1
     9    20    21 1
    10    18    17 2
    11    21    17 1
    12    21    11 1
    13    17     6 1
    14    46     6 1
    15    46    16 1
    16    16    15 1
    17    16     5 2
    18    15     4 2
    19     5    14 1
    20     4    14 1
    21     4    13 1
    22    14     3 1
    23    47    13 1
    24    13     2 2
    25     3    12 1
    26     3     1 2
    27     2     1 1
    28     1    23 1
    29     2    24 1
    30    46    25 1
    31    46    26 1
    32     6    27 1
    33     6    28 1
    34     7    29 1
    35     7    30 1
    36     8    31 1
    37     8    32 1
    38     9    33 1
    39     9    34 1
    40    10    35 1
    41    10    36 1
    42    11    37 1
    43    11    38 1
    44    11    39 1
    45    12    40 1
    46    12    41 1
    47    12    42 1
    48    47    43 1
    49    47    44 1
    50    47    45 1
@<TRIPOS>SUBSTRUCTURE
     1 5M9         1 TEMP              0 ****  ****    0 ROOT
