@<TRIPOS>MOLECULE
molecule
   46    50     1     0     0
SMALL
bcc


@<TRIPOS>ATOM
      1 C            0.0000     0.0000     0.0000 ca         1 5MA       0.005400
      2 N            1.7940     0.0000     3.7140 na         1 5MA       0.064900
      3 O           -2.0590    -0.0130     1.1800 os         1 5MA      -0.197200
      4 C1           1.3890     0.0000     0.0000 ca         1 5MA      -0.079000
      5 Cl1         -0.8610    -0.0010    -1.5080 cl         1 5MA      -0.072400
      6 C2           2.0870     0.0000     1.1860 ca         1 5MA      -0.111000
      7 Cl2         -1.6740    -5.0810     1.1640 cl         1 5MA      -0.042400
      8 C3           1.4020    -0.0010     2.3970 ca         1 5MA      -0.065200
      9 Cl3         -5.0080     0.1940     1.1620 cl         1 5MA      -0.066400
     10 C4          -0.0030    -0.0010     2.4090 ca         1 5MA       0.018400
     11 C5          -0.7010    -0.0070     1.1890 ca         1 5MA       0.141100
     12 C6          -1.9520    -2.3890     1.1750 ca         1 5MA      -0.150000
     13 C7          -2.6920    -1.2170     1.1730 ca         1 5MA       0.188100
     14 C8          -4.0800    -1.2720     1.1640 ca         1 5MA      -0.001600
     15 C9          -4.7200    -2.4980     1.1570 ca         1 5MA      -0.146300
     16 C10         -3.9820    -3.6650     1.1600 ca         1 5MA      -0.126000
     17 C11         -2.5990    -3.6120     1.1690 ca         1 5MA       0.070400
     18 N12          0.6190    -0.0000     4.4790 nc         1 5MA      -0.100400
     19 N13         -0.4020    -0.0010     3.6960 nd         1 5MA      -0.202400
     20 C14          3.1690     0.0010     4.2200 c3         1 5MA       0.141500
     21 C15          3.5940     1.4150     4.5180 cc         1 5MA      -0.122300
     22 N16          4.2660     2.2270     3.6940 na         1 5MA       0.040800
     23 N17          4.4830     3.4640     4.3120 nc         1 5MA      -0.222400
     24 C18          3.9530     3.4410     5.5220 ca         1 5MA       0.353300
     25 C19          3.3530     2.1070     5.6910 ca         1 5MA      -0.276300
     26 N20          3.8660     4.3260     6.5270 nb         1 5MA      -0.660000
     27 C21          3.2640     4.0210     7.6480 ca         1 5MA       0.476200
     28 C22          2.6800     2.7750     7.8730 ca         1 5MA      -0.277300
     29 C23          2.7040     1.8120     6.9090 ca         1 5MA      -0.031000
     30 C24         -6.2260    -2.5590     1.1480 c3         1 5MA       0.161100
     31 N26         -6.7170    -2.3350    -0.2180 nz         1 5MA      -0.810600
     32 H1           1.9260     0.0000    -0.9410 ha         1 5MA       0.169000
     33 H2           3.1710    -0.0000     1.1770 ha         1 5MA       0.148000
     34 H6          -0.8710    -2.3480     1.2310 ha         1 5MA       0.183000
     35 H10         -4.4860    -4.6240     1.1540 ha         1 5MA       0.157000
     36 H14          3.2210    -0.5910     5.1260 h1         1 5MA       0.088200
     37 H14A         3.8290    -0.4240     3.4730 h1         1 5MA       0.088200
     38 H21          3.2260     4.7630     8.4360 h4         1 5MA       0.034100
     39 H22          2.1930     2.5740     8.8200 ha         1 5MA       0.145000
     40 H23          2.2520     0.8420     7.0790 ha         1 5MA       0.138000
     41 H24         -6.5500    -3.5330     1.4930 hx         1 5MA       0.120700
     42 H24A        -6.6230    -1.7930     1.8040 hx         1 5MA       0.120700
     43 HN26        -7.6930    -2.5560    -0.2620 hn         1 5MA       0.457800
     44 HN2A        -6.5800    -1.3760    -0.4690 hn         1 5MA       0.457800
     45 HN16         4.5710     1.9860     2.7720 hn         1 5MA       0.332700
     46 H263        -6.2190    -2.9270    -0.8530 hn         1 5MA       0.457800
@<TRIPOS>BOND
     1     4     1 ar
     2     1     5 1
     3     1    11 ar
     4    20     2 1
     5     8     2 1
     6     2    18 1
     7    11     3 1
     8     3    13 1
     9     6     4 ar
    10     4    32 1
    11     6     8 ar
    12     6    33 1
    13    17     7 1
    14     8    10 ar
    15     9    14 1
    16    10    11 ar
    17    10    19 1
    18    13    12 ar
    19    12    17 ar
    20    12    34 1
    21    13    14 ar
    22    14    15 ar
    23    15    16 ar
    24    15    30 1
    25    17    16 ar
    26    16    35 1
    27    18    19 2
    28    21    20 1
    29    20    36 1
    30    20    37 1
    31    22    21 1
    32    21    25 2
    33    22    23 1
    34    23    24 2
    35    24    26 ar
    36    24    25 ar
    37    25    29 ar
    38    26    27 ar
    39    27    28 ar
    40    27    38 1
    41    29    28 ar
    42    28    39 1
    43    29    40 1
    44    30    31 1
    45    30    41 1
    46    30    42 1
    47    31    43 1
    48    31    44 1
    49    22    45 1
    50    46    31 1
@<TRIPOS>SUBSTRUCTURE
     1 5MA         1 TEMP              0 ****  ****    0 ROOT
