@<TRIPOS>MOLECULE
molecule
   18    19     1     0     0
SMALL
bcc


@<TRIPOS>ATOM
      1 N3           0.0000     0.0000     0.0000 na         1 5MB      -0.271300
      2 N1           1.8070     0.0000     1.2210 nc         1 5MB      -0.602100
      3 C2           1.3600     0.0000     0.0000 cd         1 5MB       0.424700
      4 C7A          0.7630    -0.0010     2.0900 ca         1 5MB       0.085400
      5 C3A         -0.4110    -0.0010     1.3180 ca         1 5MB      -0.090200
      6 C4          -1.6480    -0.0070     1.9450 ca         1 5MB      -0.132000
      7 C5          -1.7170    -0.0020     3.3220 ca         1 5MB      -0.066300
      8 C6          -0.5570    -0.0030     4.0830 ca         1 5MB      -0.145000
      9 C7           0.6700    -0.0010     3.4830 ca         1 5MB      -0.065000
     10 C8          -3.0600    -0.0030     4.0040 c3         1 5MB      -0.045800
     11 HN31        -0.5930    -0.0000    -0.8060 hn         1 5MB       0.301700
     12 H21          1.9800     0.0000    -0.8880 h5         1 5MB       0.072800
     13 H41         -2.5570    -0.0060     1.3550 ha         1 5MB       0.127000
     14 H61         -0.6260     0.0010     5.1640 ha         1 5MB       0.133000
     15 H71          1.5690    -0.0020     4.0870 ha         1 5MB       0.142000
     16 H81         -3.5190    -0.9780     3.8960 hc         1 5MB       0.043700
     17 H82         -3.6960     0.7480     3.5510 hc         1 5MB       0.043700
     18 H83         -2.9310     0.2200     5.0560 hc         1 5MB       0.043700
@<TRIPOS>BOND
     1     1     3 1   
     2     1     5 1   
     3     1    11 1   
     4     2     3 2   
     5     2     4 1   
     6     3    12 1   
     7     4     5 ar  
     8     4     9 ar  
     9     5     6 ar  
    10     6     7 ar  
    11     6    13 1   
    12     7     8 ar  
    13     7    10 1   
    14     8     9 ar  
    15     8    14 1   
    16     9    15 1   
    17    10    16 1   
    18    10    17 1   
    19    10    18 1   
@<TRIPOS>SUBSTRUCTURE
     1 5MB         1 TEMP              0 ****  ****    0 ROOT
