@<TRIPOS>MOLECULE
5MB
   18    19     1     0     0
SMALL
bcc


@<TRIPOS>ATOM
      1 N3         -0.0120    0.0490   -0.0220 na        1 5MB     -0.291300
      2 N1          1.9070   -0.0150    1.2420 nc        1 5MB     -0.564100
      3 C2          1.3960    0.0250    0.0020 cd        1 5MB      0.415700
      4 C7A         0.7910   -0.0190    2.1050 ca        1 5MB      0.058400
      5 C3A        -0.4280    0.0210    1.3130 ca        1 5MB     -0.071200
      6 C4         -1.6910    0.0260    1.9140 ca        1 5MB     -0.137000
      7 C5         -1.7460   -0.0090    3.3040 ca        1 5MB     -0.058300
      8 C6         -0.5640   -0.0480    4.0770 ca        1 5MB     -0.155000
      9 C7          0.6960   -0.0540    3.5030 ca        1 5MB     -0.064000
     10 C8         -3.0540   -0.0060    4.0000 c3        1 5MB     -0.053800
     11 HN31       -0.5930    0.0790   -0.8140 hn        1 5MB      0.304700
     12 H21         1.9860    0.0390   -0.9220 h5        1 5MB      0.066800
     13 H41        -2.6070    0.0570    1.3100 ha        1 5MB      0.135000
     14 H61        -0.6580   -0.0750    5.1740 ha        1 5MB      0.133000
     15 H71         1.6050   -0.0850    4.1200 ha        1 5MB      0.148000
     16 H81        -3.1270    0.8780    4.6810 hc        1 5MB      0.044367
     17 H82        -3.9040    0.0360    3.2760 hc        1 5MB      0.044367
     18 H83        -3.1640   -0.9320    4.6180 hc        1 5MB      0.044367
@<TRIPOS>BOND
     1    1    3 1   
     2    1    5 1   
     3    1   11 1   
     4    2    3 2   
     5    2    4 1   
     6    3   12 1   
     7    4    5 ar  
     8    4    9 ar  
     9    5    6 ar  
    10    6    7 ar  
    11    6   13 1   
    12    7    8 ar  
    13    7   10 1   
    14    8    9 ar  
    15    8   14 1   
    16    9   15 1   
    17   10   16 1   
    18   10   17 1   
    19   10   18 1   
@<TRIPOS>SUBSTRUCTURE
     1 5MB         1 TEMP              0 ****  ****    0 ROOT
