@<TRIPOS>MOLECULE
5ME
   42    44     1     0     0
SMALL
bcc


@<TRIPOS>ATOM
      1 CAJ          0.0000     0.0000     0.0000 ca         1 5ME      -0.202300
      2 CAF          1.3860     0.0000     0.0000 ca         1 5ME      -0.062000
      3 CAE          2.0460     0.0000     1.2200 ca         1 5ME      -0.220300
      4 CAI          1.3040     0.0010     2.3860 ca         1 5ME       0.408200
      5 NAO         -0.0130     0.0010     2.3480 nb         1 5ME      -0.585000
      6 CAU         -0.6740     0.0060     1.2060 ca         1 5ME       0.358600
      7 CAY         -2.1810     0.0060     1.2180 c3         1 5ME      -0.023600
      8 CAA         -2.6930    -1.4300     1.0900 c3         1 5ME      -0.011100
      9 NAQ         -2.6600     0.5840     2.4760 ns         1 5ME      -0.185900
     10 CAS         -3.8810     1.1500     2.5360 c          1 5ME       0.569100
     11 OAC         -4.5840     1.1820     1.5490 o          1 5ME      -0.669100
     12 CAM         -4.3740     1.7450     3.8300 c3         1 5ME      -0.087400
     13 CAN         -5.7780     2.3180     3.6270 c3         1 5ME      -0.044700
     14 CAT         -6.2700     2.9120     4.9210 cc         1 5ME       0.290900
     15 NAP         -5.4910     2.8610     5.9580 nd         1 5ME      -0.554100
     16 CAW         -5.8670     3.3750     7.1560 ca         1 5ME       0.156400
     17 CAK         -5.0280     3.3200     8.2720 ca         1 5ME      -0.100000
     18 CAG         -5.4510     3.8550     9.4680 ca         1 5ME      -0.063000
     19 CAH         -6.7010     4.4500     9.5810 ca         1 5ME      -0.131000
     20 CAL         -7.5450     4.5160     8.4940 ca         1 5ME      -0.014000
     21 CAX         -7.1370     3.9810     7.2740 ca         1 5ME      -0.217600
     22 CAV         -7.9950     4.0220     6.0800 c          1 5ME       0.617100
     23 OAD         -9.1020     4.5290     6.1140 o          1 5ME      -0.663500
     24 NAR         -7.5050     3.4790     4.9410 ns         1 5ME      -0.005400
     25 H1          -0.5480     0.0020    -0.9340 ha         1 5ME       0.120000
     26 H2           1.9410    -0.0030    -0.9310 ha         1 5ME       0.111000
     27 H3           3.1290    -0.0000     1.2580 ha         1 5ME       0.115000
     28 H4           1.8120    -0.0010     3.3430 h4         1 5ME      -0.018900
     29 H5          -2.5490     0.5960     0.3870 h1         1 5ME       0.060700
     30 H6          -1.8580    -2.0960     0.9050 hc         1 5ME       0.013700
     31 H7          -3.1890    -1.7200     2.0080 hc         1 5ME       0.013700
     32 H8          -3.3930    -1.4920     0.2650 hc         1 5ME       0.013700
     33 H9          -2.0920     0.5330     3.2980 hn         1 5ME       0.198500
     34 H10         -4.4040     0.9750     4.5930 hc         1 5ME       0.044700
     35 H11         -3.7030     2.5360     4.1430 hc         1 5ME       0.044700
     36 H12         -5.7470     3.0870     2.8650 hc         1 5ME       0.042700
     37 H13         -6.4490     1.5270     3.3150 hc         1 5ME       0.042700
     38 H15         -4.0510     2.8590     8.1960 ha         1 5ME       0.118000
     39 H16         -4.7990     3.8120    10.3320 ha         1 5ME       0.102000
     40 H17         -7.0140     4.8660    10.5310 ha         1 5ME       0.108000
     41 H18         -8.5190     4.9810     8.5870 ha         1 5ME       0.124000
     42 H14         -8.0570     3.4950     4.1070 hn         1 5ME       0.184500
@<TRIPOS>BOND
     1     1     2 ar  
     2     1     6 ar  
     3     1    25 1   
     4     2     3 ar  
     5     2    26 1   
     6     3     4 ar  
     7     3    27 1   
     8     4     5 ar  
     9     4    28 1   
    10     5     6 ar  
    11     6     7 1   
    12     7     8 1   
    13     7     9 1   
    14     7    29 1   
    15     8    30 1   
    16     8    31 1   
    17     8    32 1   
    18     9    10 1   
    19     9    33 1   
    20    10    11 2   
    21    10    12 1   
    22    12    13 1   
    23    12    34 1   
    24    12    35 1   
    25    13    14 1   
    26    13    36 1   
    27    13    37 1   
    28    14    15 2   
    29    14    24 1   
    30    15    16 1   
    31    16    17 ar  
    32    16    21 ar  
    33    17    18 ar  
    34    17    38 1   
    35    18    19 ar  
    36    18    39 1   
    37    19    20 ar  
    38    19    40 1   
    39    20    21 ar  
    40    20    41 1   
    41    21    22 1   
    42    22    23 2   
    43    22    24 1   
    44    24    42 1   
@<TRIPOS>SUBSTRUCTURE
     1 5ME         1 TEMP              0 ****  ****    0 ROOT
