@<TRIPOS>MOLECULE
molecule
   42    44     1     0     0
SMALL
bcc


@<TRIPOS>ATOM
      1 CAJ          0.0000     0.0000     0.0000 ca         1 5ME      -0.241300
      2 CAF          1.3860     0.0000     0.0000 ca         1 5ME      -0.087000
      3 CAE          2.0460     0.0000     1.2200 ca         1 5ME      -0.255300
      4 CAI          1.3040     0.0010     2.3860 ca         1 5ME       0.426200
      5 NAO         -0.0130     0.0010     2.3480 nb         1 5ME      -0.704000
      6 CAU         -0.6740     0.0060     1.2060 ca         1 5ME       0.414600
      7 CAY         -2.1810     0.0060     1.2180 c3         1 5ME       0.073400
      8 CAA         -2.6930    -1.4300     1.0900 c3         1 5ME      -0.104100
      9 NAQ         -2.6600     0.5840     2.4760 ns         1 5ME      -0.571900
     10 CAS         -3.8810     1.1500     2.5360 c          1 5ME       0.653100
     11 OAC         -4.5840     1.1820     1.5490 o          1 5ME      -0.630100
     12 CAM         -4.3740     1.7450     3.8300 c3         1 5ME      -0.140400
     13 CAN         -5.7780     2.3180     3.6270 c3         1 5ME      -0.103700
     14 CAT         -6.2700     2.9120     4.9210 cc         1 5ME       0.497900
     15 NAP         -5.4910     2.8610     5.9580 nd         1 5ME      -0.661100
     16 CAW         -5.8670     3.3750     7.1560 ca         1 5ME       0.198400
     17 CAK         -5.0280     3.3200     8.2720 ca         1 5ME      -0.124000
     18 CAG         -5.4510     3.8550     9.4680 ca         1 5ME      -0.092000
     19 CAH         -6.7010     4.4500     9.5810 ca         1 5ME      -0.156000
     20 CAL         -7.5450     4.5160     8.4940 ca         1 5ME      -0.051000
     21 CAX         -7.1370     3.9810     7.2740 ca         1 5ME      -0.207600
     22 CAV         -7.9950     4.0220     6.0800 c          1 5ME       0.707100
     23 OAD         -9.1020     4.5290     6.1140 o          1 5ME      -0.622500
     24 NAR         -7.5050     3.4790     4.9410 ns         1 5ME      -0.470400
     25 H1          -0.5480     0.0020    -0.9340 ha         1 5ME       0.144000
     26 H2           1.9410    -0.0030    -0.9310 ha         1 5ME       0.141000
     27 H3           3.1290    -0.0000     1.2580 ha         1 5ME       0.140000
     28 H4           1.8120    -0.0010     3.3430 h4         1 5ME       0.024100
     29 H5          -2.5490     0.5960     0.3870 h1         1 5ME       0.087700
     30 H6          -1.8580    -2.0960     0.9050 hc         1 5ME       0.047033
     31 H7          -3.1890    -1.7200     2.0080 hc         1 5ME       0.047033
     32 H8          -3.3930    -1.4920     0.2650 hc         1 5ME       0.047033
     33 H9          -2.0920     0.5330     3.2980 hn         1 5ME       0.338500
     34 H10         -4.4040     0.9750     4.5930 hc         1 5ME       0.080200
     35 H11         -3.7030     2.5360     4.1430 hc         1 5ME       0.080200
     36 H12         -5.7470     3.0870     2.8650 hc         1 5ME       0.079700
     37 H13         -6.4490     1.5270     3.3150 hc         1 5ME       0.079700
     38 H15         -4.0510     2.8590     8.1960 ha         1 5ME       0.148000
     39 H16         -4.7990     3.8120    10.3320 ha         1 5ME       0.134000
     40 H17         -7.0140     4.8660    10.5310 ha         1 5ME       0.136000
     41 H18         -8.5190     4.9810     8.5870 ha         1 5ME       0.154000
     42 H14         -8.0570     3.4950     4.1070 hn         1 5ME       0.340500
@<TRIPOS>BOND
     1    19    20 ar  
     2    19    18 ar  
     3    20    21 ar  
     4    18    17 ar  
     5    21    22 1   
     6    21    16 ar  
     7    17    16 ar  
     8    23    22 2   
     9    22    24 1   
    10    16    15 1   
    11    11    10 2   
    12     4     5 ar  
    13     4     3 ar  
    14     5     6 ar  
    15    24    14 1   
    16    15    14 2   
    17    14    13 1   
    18     3     2 ar  
    19    10     9 1   
    20    10    12 1   
    21     6     7 1   
    22     6     1 ar  
    23     7     9 1   
    24     7     8 1   
    25    13    12 1   
    26     2     1 ar  
    27     1    25 1   
    28     2    26 1   
    29     3    27 1   
    30     4    28 1   
    31     7    29 1   
    32     8    30 1   
    33     8    31 1   
    34     8    32 1   
    35     9    33 1   
    36    12    34 1   
    37    12    35 1   
    38    13    36 1   
    39    13    37 1   
    40    17    38 1   
    41    18    39 1   
    42    19    40 1   
    43    20    41 1   
    44    24    42 1   
@<TRIPOS>SUBSTRUCTURE
     1 5ME         1 TEMP              0 ****  ****    0 ROOT
