@<TRIPOS>MOLECULE
5MF
   49    52     1     0     0
SMALL
bcc


@<TRIPOS>ATOM
      1 C10          0.0000     0.0000     0.0000 cc         1 5MF       0.578300
      2 C13         -1.1620    -1.4350    -1.6560 c3         1 5MF      -0.035700
      3 C17         -3.7740    -1.4210    -4.1690 cc         1 5MF       0.686900
      4 C20         -0.1980    -1.4190    -4.6070 c3         1 5MF       0.025600
      5 C21         -5.2260    -1.4010    -6.0360 c3         1 5MF       0.136800
      6 C22         -6.0640    -0.1630    -6.4190 c3         1 5MF      -0.037400
      7 C23         -6.8540     0.1390    -5.1190 c3         1 5MF      -0.037400
      8 C24         -5.8180    -0.2320    -4.0290 c3         1 5MF       0.136800
      9 C25          4.6390    -1.4360     0.5730 c3         1 5MF       0.007900
     10 N1           2.0490    -0.0030     3.9410 nc         1 5MF      -0.587000
     11 C2           3.1510    -0.0000     3.1860 cc         1 5MF       0.407200
     12 C3           3.0540     0.0000     1.8280 cd         1 5MF      -0.174600
     13 C4           0.8530    -0.0030     3.4180 cd         1 5MF       0.342800
     14 C5          -0.3530    -0.0040     4.3220 c3         1 5MF      -0.034400
     15 C6           4.2910     0.0010     0.9680 c3         1 5MF       0.042900
     16 N7           0.6790    -0.0010     2.0740 na         1 5MF       0.502200
     17 C8           1.7710     0.0000     1.2470 cd         1 5MF      -0.150300
     18 N9           1.3260     0.0000     0.0000 nc         1 5MF      -0.400300
     19 N11         -0.4420    -0.0010     1.2360 nd         1 5MF      -0.751100
     20 C12         -0.8680     0.0060    -1.2320 c3         1 5MF      -0.012700
     21 C14         -2.0290    -1.4280    -2.8890 cd         1 5MF       0.277800
     22 N15         -1.5930    -1.4210    -4.1590 na         1 5MF       0.354600
     23 N16         -2.7380    -1.4170    -4.9730 nd         1 5MF      -0.732800
     24 N18         -3.3380    -1.4280    -2.9050 nc         1 5MF      -0.692000
     25 N19         -5.1120    -1.4150    -4.5670 nh         1 5MF      -0.439300
     26 H1          -0.2310    -1.9440    -1.8730 hc         1 5MF       0.036200
     27 H2          -1.6780    -1.9490    -0.8550 hc         1 5MF       0.036200
     28 H3           0.3180    -2.2730    -4.1860 h1         1 5MF       0.025033
     29 H4          -0.1670    -1.4750    -5.6890 h1         1 5MF       0.025033
     30 H5           0.2850    -0.5060    -4.2790 h1         1 5MF       0.025033
     31 H6          -4.2410    -1.3300    -6.4810 h1         1 5MF       0.030700
     32 H7          -5.7250    -2.3010    -6.3740 h1         1 5MF       0.030700
     33 H8          -5.4200     0.6690    -6.6760 hc         1 5MF       0.021450
     34 H9          -6.7410    -0.3970    -7.2320 hc         1 5MF       0.021450
     35 H10         -7.1150     1.1890    -5.0620 hc         1 5MF       0.021450
     36 H11         -7.7320    -0.4910    -5.0470 hc         1 5MF       0.021450
     37 H12         -5.1230     0.5850    -3.8790 h1         1 5MF       0.030700
     38 H13         -6.3210    -0.4840    -3.1030 h1         1 5MF       0.030700
     39 H14          5.7150    -1.5460     0.5210 hc         1 5MF       0.006033
     40 H15          4.2420    -2.1200     1.3130 hc         1 5MF       0.006033
     41 H16          4.2060    -1.6600    -0.3950 hc         1 5MF       0.006033
     42 H17          4.1260    -0.0000     3.6570 h4         1 5MF      -0.001900
     43 H18         -0.9980    -0.8340     4.0610 hc         1 5MF       0.029367
     44 H19         -0.8940     0.9260     4.2020 hc         1 5MF       0.029367
     45 H20         -0.0320    -0.1060     5.3510 hc         1 5MF       0.029367
     46 H21          5.1160     0.4330     1.5210 hc         1 5MF       0.026200
     47 H22          4.1100     0.5860     0.0750 hc         1 5MF       0.026200
     48 H23         -1.8000     0.5150    -1.0140 hc         1 5MF       0.035700
     49 H24         -0.3540     0.5210    -2.0340 hc         1 5MF       0.035700
@<TRIPOS>BOND
     1     1    18 1   
     2     1    19 2   
     3     1    20 1   
     4     2    20 1   
     5     2    21 1   
     6     2    26 1   
     7     2    27 1   
     8     3    23 2   
     9     3    24 1   
    10     3    25 1   
    11     4    22 1   
    12     4    28 1   
    13     4    29 1   
    14     4    30 1   
    15     5     6 1   
    16     5    25 1   
    17     5    31 1   
    18     5    32 1   
    19     6     7 1   
    20     6    33 1   
    21     6    34 1   
    22     7     8 1   
    23     7    35 1   
    24     7    36 1   
    25     8    25 1   
    26     8    37 1   
    27     8    38 1   
    28     9    15 1   
    29     9    39 1   
    30     9    40 1   
    31     9    41 1   
    32    10    11 1   
    33    10    13 2   
    34    11    12 2   
    35    11    42 1   
    36    12    15 1   
    37    12    17 1   
    38    13    14 1   
    39    13    16 1   
    40    14    43 1   
    41    14    44 1   
    42    14    45 1   
    43    15    46 1   
    44    15    47 1   
    45    16    17 1   
    46    16    19 1   
    47    17    18 2   
    48    20    48 1   
    49    20    49 1   
    50    21    22 1   
    51    21    24 2   
    52    22    23 1   
@<TRIPOS>SUBSTRUCTURE
     1 5MF         1 TEMP              0 ****  ****    0 ROOT
