@<TRIPOS>MOLECULE
molecule
   49    52     1     0     0
SMALL
bcc


@<TRIPOS>ATOM
      1 C10          0.0000     0.0000     0.0000 cc         1 5MF       0.571300
      2 C13         -1.1620    -1.4350    -1.6560 c3         1 5MF      -0.099700
      3 C17         -3.7740    -1.4210    -4.1690 cc         1 5MF       0.757900
      4 C20         -0.1980    -1.4190    -4.6070 c3         1 5MF       0.058600
      5 C21         -5.2260    -1.4010    -6.0360 c3         1 5MF       0.158300
      6 C22         -6.0640    -0.1630    -6.4190 c3         1 5MF      -0.101400
      7 C23         -6.8540     0.1390    -5.1190 c3         1 5MF      -0.101400
      8 C24         -5.8180    -0.2320    -4.0290 c3         1 5MF       0.158300
      9 C25          4.6390    -1.4360     0.5730 c3         1 5MF      -0.089100
     10 N1           2.0490    -0.0030     3.9410 nc         1 5MF      -0.717000
     11 C2           3.1510    -0.0000     3.1860 cc         1 5MF       0.436200
     12 C3           3.0540     0.0000     1.8280 cd         1 5MF      -0.192600
     13 C4           0.8530    -0.0030     3.4180 cd         1 5MF       0.578800
     14 C5          -0.3530    -0.0040     4.3220 c3         1 5MF      -0.137400
     15 C6           4.2910     0.0010     0.9680 c3         1 5MF      -0.024100
     16 N7           0.6790    -0.0010     2.0740 na         1 5MF       0.015200
     17 C8           1.7710     0.0000     1.2470 cd         1 5MF       0.038700
     18 N9           1.3260     0.0000     0.0000 nc         1 5MF      -0.464300
     19 N11         -0.4420    -0.0010     1.2360 nd         1 5MF      -0.595100
     20 C12         -0.8680     0.0060    -1.2320 c3         1 5MF      -0.065700
     21 C14         -2.0290    -1.4280    -2.8890 cd         1 5MF       0.458800
     22 N15         -1.5930    -1.4210    -4.1590 na         1 5MF      -0.062400
     23 N16         -2.7380    -1.4170    -4.9730 nd         1 5MF      -0.594800
     24 N18         -3.3380    -1.4280    -2.9050 nc         1 5MF      -0.762000
     25 N19         -5.1120    -1.4150    -4.5670 nh         1 5MF      -0.655300
     26 H1          -0.2310    -1.9440    -1.8730 hc         1 5MF       0.075700
     27 H2          -1.6780    -1.9490    -0.8550 hc         1 5MF       0.075700
     28 H3           0.3180    -2.2730    -4.1860 h1         1 5MF       0.057367
     29 H4          -0.1670    -1.4750    -5.6890 h1         1 5MF       0.057367
     30 H5           0.2850    -0.5060    -4.2790 h1         1 5MF       0.057367
     31 H6          -4.2410    -1.3300    -6.4810 h1         1 5MF       0.061950
     32 H7          -5.7250    -2.3010    -6.3740 h1         1 5MF       0.061950
     33 H8          -5.4200     0.6690    -6.6760 hc         1 5MF       0.053200
     34 H9          -6.7410    -0.3970    -7.2320 hc         1 5MF       0.053200
     35 H10         -7.1150     1.1890    -5.0620 hc         1 5MF       0.053200
     36 H11         -7.7320    -0.4910    -5.0470 hc         1 5MF       0.053200
     37 H12         -5.1230     0.5850    -3.8790 h1         1 5MF       0.061950
     38 H13         -6.3210    -0.4840    -3.1030 h1         1 5MF       0.061950
     39 H14          5.7150    -1.5460     0.5210 hc         1 5MF       0.039700
     40 H15          4.2420    -2.1200     1.3130 hc         1 5MF       0.039700
     41 H16          4.2060    -1.6600    -0.3950 hc         1 5MF       0.039700
     42 H17          4.1260    -0.0000     3.6570 h4         1 5MF       0.041100
     43 H18         -0.9980    -0.8340     4.0610 hc         1 5MF       0.071700
     44 H19         -0.8940     0.9260     4.2020 hc         1 5MF       0.071700
     45 H20         -0.0320    -0.1060     5.3510 hc         1 5MF       0.071700
     46 H21          5.1160     0.4330     1.5210 hc         1 5MF       0.058200
     47 H22          4.1100     0.5860     0.0750 hc         1 5MF       0.058200
     48 H23         -1.8000     0.5150    -1.0140 hc         1 5MF       0.075700
     49 H24         -0.3540     0.5210    -2.0340 hc         1 5MF       0.075700
@<TRIPOS>BOND
     1     7     6 1
     2     7     8 1
     3     6     5 1
     4     8    25 1
     5     5    25 1
     6    25     3 1
     7     3    23 2
     8     3    24 1
     9    23    22 1
    10    24    21 2
    11    22    21 1
    12    22     4 1
    13    21     2 1
    14    20     2 1
    15    20     1 1
    16     1    18 1
    17     1    19 2
    18    18    17 2
    19    19    16 1
    20    17    16 1
    21    17    12 1
    22    16    13 1
    23    15     9 1
    24    15    12 1
    25    12    11 2
    26    13    14 1
    27    13    10 2
    28    11    10 1
    29     2    26 1
    30     2    27 1
    31     4    28 1
    32     4    29 1
    33     4    30 1
    34     5    31 1
    35     5    32 1
    36     6    33 1
    37     6    34 1
    38     7    35 1
    39     7    36 1
    40     8    37 1
    41     8    38 1
    42     9    39 1
    43     9    40 1
    44     9    41 1
    45    11    42 1
    46    14    43 1
    47    14    44 1
    48    14    45 1
    49    15    46 1
    50    15    47 1
    51    20    48 1
    52    20    49 1
@<TRIPOS>SUBSTRUCTURE
     1 5MF         1 TEMP              0 ****  ****    0 ROOT
