@<TRIPOS>MOLECULE
molecule
   42    45     1     0     0
SMALL
bcc


@<TRIPOS>ATOM
      1 N3           0.0000     0.0000     0.0000 nc         1 5MG      -0.413400
      2 C4           1.5310    -0.1080    -2.5410 cc         1 5MG      -0.136600
      3 C8           3.7220     0.0720    -2.6710 cc         1 5MG       0.486500
      4 C10          1.2290    -0.0010     2.4630 cd         1 5MG      -0.301200
      5 C13         -2.0770     0.0000     0.9930 ca         1 5MG       0.166600
      6 C15          0.1040    -0.2530    -2.8910 ca         1 5MG      -0.019000
      7 C17         -4.2080    -0.8840     1.6600 ca         1 5MG       0.139100
      8 C24         -4.0970     0.8930     0.0510 ca         1 5MG      -0.079000
      9 C26         -0.4690     0.5740    -3.8590 ca         1 5MG      -0.095000
     10 C28         -1.8040     0.4320    -4.1800 ca         1 5MG      -0.135000
     11 C1           2.0690     0.0010    -1.2720 cd         1 5MG       0.329000
     12 C2           1.3140     0.0000     0.0000 cd         1 5MG       0.272300
     13 N5          -0.6820     0.0000     1.0850 na         1 5MG      -0.145900
     14 N6           2.5950    -0.0610    -3.4150 na         1 5MG      -0.285900
     15 N7           3.4060     0.1090    -1.4060 nd         1 5MG      -0.621000
     16 C9           2.0220     0.0000     1.2910 c          1 5MG       0.443000
     17 C11         -0.1200    -0.0000     2.3140 cc         1 5MG       0.045000
     18 C14         -2.8240    -0.8870     1.7550 ca         1 5MG      -0.155000
     19 O16         -4.9420    -1.7510     2.4050 os         1 5MG      -0.338900
     20 O18          3.2430     0.0010     1.3490 o          1 5MG      -0.508100
     21 F20         -6.7040    -1.9570     0.9270 f          1 5MG      -0.201967
     22 F21         -6.9580    -2.6460     3.0910 f          1 5MG      -0.201967
     23 F22         -6.8150    -0.4160     2.6110 f          1 5MG      -0.201967
     24 C23         -2.7190     0.8930     0.1420 ca         1 5MG      -0.128000
     25 C25         -4.8420     0.0060     0.8050 ca         1 5MG      -0.201000
     26 C27         -0.6780    -1.2220    -2.2570 ca         1 5MG      -0.095000
     27 C29         -2.0100    -1.3520    -2.5880 ca         1 5MG      -0.135000
     28 C30         -2.5730    -0.5260    -3.5440 ca         1 5MG      -0.121000
     29 H1           1.6830    -0.0010     3.4460 ha         1 5MG       0.172000
     30 H2          -4.5940     1.5890    -0.6140 ha         1 5MG       0.148000
     31 H3           0.1330     1.3240    -4.3570 ha         1 5MG       0.136000
     32 H4          -2.2510     1.0750    -4.9300 ha         1 5MG       0.132500
     33 H5           2.5460    -0.1150    -4.4130 hn         1 5MG       0.310700
     34 H7          -0.7550    -0.0010     3.1930 h4         1 5MG       0.163000
     35 H8          -2.3250    -1.6270     2.3690 ha         1 5MG       0.159000
     36 H9          -2.1370     1.5890    -0.4490 ha         1 5MG       0.161000
     37 H10         -5.9230     0.0090     0.7310 ha         1 5MG       0.155000
     38 H11         -0.2400    -1.8700    -1.5080 ha         1 5MG       0.136000
     39 H12         -2.6190    -2.1010    -2.0960 ha         1 5MG       0.132500
     40 H13         -3.6210    -0.6330    -3.8000 ha         1 5MG       0.130000
     41 Cl1          5.3350     0.1770    -3.3050 cl         1 5MG      -0.098000
     42 C12         -6.3630    -1.6920     2.2580 c3         1 5MG       0.797700
@<TRIPOS>BOND
     1    23    42 1   
     2    22    42 1   
     3    42    19 1   
     4    42    21 1   
     5    19     7 1   
     6    25     7 ar  
     7    25     8 ar  
     8     7    18 ar  
     9     8    24 ar  
    10    28    10 ar  
    11    28    27 ar  
    12    18     5 ar  
    13    10     9 ar  
    14    24     5 ar  
    15     5    13 1   
    16    27    26 ar  
    17     9     6 ar  
    18    13     1 1   
    19    13    17 1   
    20    26     6 ar  
    21     6     2 1   
    22     1    12 2   
    23    17     4 2   
    24     2    11 2   
    25     2    14 1   
    26    12    11 1   
    27    12    16 1   
    28     4    16 1   
    29    11    15 1   
    30    14     3 1   
    31    16    20 2   
    32    15     3 2   
    33     3    41 1   
    34     4    29 1   
    35     8    30 1   
    36     9    31 1   
    37    10    32 1   
    38    14    33 1   
    39    17    34 1   
    40    18    35 1   
    41    24    36 1   
    42    25    37 1   
    43    26    38 1   
    44    27    39 1   
    45    28    40 1   
@<TRIPOS>SUBSTRUCTURE
     1 5MG         1 TEMP              0 ****  ****    0 ROOT
