@<TRIPOS>MOLECULE
5MG
   42    45     1     0     0
SMALL
bcc


@<TRIPOS>ATOM
      1 N3           0.0000     0.0000     0.0000 nc         1 5MG      -0.507400
      2 C4           1.5310    -0.1080    -2.5410 cc         1 5MG      -0.333600
      3 C8           3.7220     0.0720    -2.6710 cc         1 5MG       0.177500
      4 C10          1.2290    -0.0010     2.4630 cc         1 5MG      -0.268200
      5 C13         -2.0770     0.0000     0.9930 ca         1 5MG      -0.012400
      6 C15          0.1040    -0.2530    -2.8910 ca         1 5MG       0.008000
      7 C17         -4.2080    -0.8840     1.6600 ca         1 5MG       0.152100
      8 C24         -4.0970     0.8930     0.0510 ca         1 5MG      -0.039000
      9 C26         -0.4690     0.5740    -3.8590 ca         1 5MG      -0.081000
     10 C28         -1.8040     0.4320    -4.1800 ca         1 5MG      -0.106000
     11 C1           2.0690     0.0010    -1.2720 cd         1 5MG       0.296000
     12 C2           1.3140     0.0000     0.0000 cd         1 5MG       0.256300
     13 N5          -0.6820     0.0000     1.0850 na         1 5MG       0.320100
     14 N6           2.5950    -0.0610    -3.4150 na         1 5MG       0.271100
     15 N7           3.4060     0.1090    -1.4060 nd         1 5MG      -0.525000
     16 C9           2.0220     0.0000     1.2910 c          1 5MG       0.482000
     17 C11         -0.1200    -0.0000     2.3140 cd         1 5MG      -0.117000
     18 C14         -2.8240    -0.8870     1.7550 ca         1 5MG      -0.127000
     19 O16         -4.9420    -1.7510     2.4050 os         1 5MG      -0.313900
     20 O18          3.2430     0.0010     1.3490 o          1 5MG      -0.548100
     21 F20         -6.7040    -1.9570     0.9270 f          1 5MG      -0.194967
     22 F21         -6.9580    -2.6460     3.0910 f          1 5MG      -0.194967
     23 F22         -6.8150    -0.4160     2.6110 f          1 5MG      -0.194967
     24 C23         -2.7190     0.8930     0.1420 ca         1 5MG      -0.097000
     25 C25         -4.8420     0.0060     0.8050 ca         1 5MG      -0.191000
     26 C27         -0.6780    -1.2220    -2.2570 ca         1 5MG      -0.081000
     27 C29         -2.0100    -1.3520    -2.5880 ca         1 5MG      -0.106000
     28 C30         -2.5730    -0.5260    -3.5440 ca         1 5MG      -0.100000
     29 H1           1.6830    -0.0010     3.4460 ha         1 5MG       0.142000
     30 H2          -4.5940     1.5890    -0.6140 ha         1 5MG       0.113000
     31 H3           0.1330     1.3240    -4.3570 ha         1 5MG       0.107500
     32 H4          -2.2510     1.0750    -4.9300 ha         1 5MG       0.103500
     33 H5           2.5460    -0.1150    -4.4130 hn         1 5MG       0.126700
     34 H7          -0.7550    -0.0010     3.1930 h4         1 5MG       0.138000
     35 H8          -2.3250    -1.6270     2.3690 ha         1 5MG       0.131000
     36 H9          -2.1370     1.5890    -0.4490 ha         1 5MG       0.130000
     37 H10         -5.9230     0.0090     0.7310 ha         1 5MG       0.135000
     38 H11         -0.2400    -1.8700    -1.5080 ha         1 5MG       0.107500
     39 H12         -2.6190    -2.1010    -2.0960 ha         1 5MG       0.103500
     40 H13         -3.6210    -0.6330    -3.8000 ha         1 5MG       0.102000
     41 Cl1          5.3350     0.1770    -3.3050 cl         1 5MG      -0.024000
     42 C12         -6.3630    -1.6920     2.2580 c3         1 5MG       0.757700
@<TRIPOS>BOND
     1     1    12 2   
     2     1    13 1   
     3     2     6 1   
     4     2    11 2   
     5     2    14 1   
     6     3    14 1   
     7     3    15 2   
     8     3    41 1   
     9     4    16 1   
    10     4    17 2   
    11     4    29 1   
    12     5    13 1   
    13     5    18 ar  
    14     5    24 ar  
    15     6     9 ar  
    16     6    26 ar  
    17     7    18 ar  
    18     7    19 1   
    19     7    25 ar  
    20     8    24 ar  
    21     8    25 ar  
    22     8    30 1   
    23     9    10 ar  
    24     9    31 1   
    25    10    28 ar  
    26    10    32 1   
    27    11    12 1   
    28    11    15 1   
    29    12    16 1   
    30    13    17 1   
    31    14    33 1   
    32    16    20 2   
    33    17    34 1   
    34    18    35 1   
    35    19    42 1   
    36    21    42 1   
    37    22    42 1   
    38    23    42 1   
    39    24    36 1   
    40    25    37 1   
    41    26    27 ar  
    42    26    38 1   
    43    27    28 ar  
    44    27    39 1   
    45    28    40 1   
@<TRIPOS>SUBSTRUCTURE
     1 5MG         1 TEMP              0 ****  ****    0 ROOT
