@<TRIPOS>MOLECULE
molecule
   16    16     1     0     0
SMALL
bcc


@<TRIPOS>ATOM
      1 S1           0.0000     0.0000     0.0000 s          1 5MH      -0.602400
      2 C1           1.7120     0.0000     0.0000 cs         1 5MH       0.415600
      3 C2           2.4130     0.0000     1.2170 cc         1 5MH      -0.170200
      4 C3           3.7770    -0.0000     1.2010 cd         1 5MH      -0.064000
      5 C4           4.4500    -0.0000    -0.0300 cd         1 5MH      -0.154200
      6 C6           5.9570    -0.0010    -0.0670 c3         1 5MH      -0.038900
      7 C5           3.7440     0.0000    -1.1850 cc         1 5MH      -0.024400
      8 N1           2.3850    -0.0060    -1.1660 n          1 5MH      -0.097500
      9 O1           1.6690    -0.0060    -2.3870 oh         1 5MH      -0.336100
     10 H1           1.8770     0.0000     2.1580 ha         1 5MH       0.183000
     11 H2           4.3350    -0.0000     2.1290 ha         1 5MH       0.149000
     12 H3           6.3030    -0.8540    -0.6370 hc         1 5MH       0.049700
     13 H4           6.3430    -0.0610     0.9440 hc         1 5MH       0.049700
     14 H5           6.3070     0.9120    -0.5330 hc         1 5MH       0.049700
     15 H6           4.2680    -0.0020    -2.1330 h4         1 5MH       0.172000
     16 H7           1.6310     0.8720    -2.7300 ho         1 5MH       0.419000
@<TRIPOS>BOND
     1     6     5 1   
     2     7     5 2   
     3     7     8 1   
     4     5     4 1   
     5     9     8 1   
     6     8     2 1   
     7     4     3 2   
     8     2     3 1   
     9     2     1 2   
    10     3    10 1   
    11     4    11 1   
    12     6    12 1   
    13     6    13 1   
    14     6    14 1   
    15     7    15 1   
    16     9    16 1   
@<TRIPOS>SUBSTRUCTURE
     1 5MH         1 TEMP              0 ****  ****    0 ROOT
