@<TRIPOS>MOLECULE
5MH
   16    16     1     0     0
SMALL
bcc


@<TRIPOS>ATOM
      1 S1           0.0000     0.0000     0.0000 s          1 5MH      -0.656400
      2 C1           1.7120     0.0000     0.0000 cs         1 5MH       0.196600
      3 C2           2.4130     0.0000     1.2170 cc         1 5MH      -0.106200
      4 C3           3.7770    -0.0000     1.2010 cd         1 5MH      -0.057000
      5 C4           4.4500    -0.0000    -0.0300 cd         1 5MH      -0.115200
      6 C6           5.9570    -0.0010    -0.0670 c3         1 5MH       0.070100
      7 C5           3.7440     0.0000    -1.1850 cc         1 5MH      -0.224400
      8 N1           2.3850    -0.0060    -1.1660 n          1 5MH       0.450500
      9 O1           1.6690    -0.0060    -2.3870 oh         1 5MH      -0.439100
     10 H1           1.8770     0.0000     2.1580 ha         1 5MH       0.151000
     11 H2           4.3350    -0.0000     2.1290 ha         1 5MH       0.120000
     12 H3           6.3030    -0.8540    -0.6370 hc         1 5MH       0.013700
     13 H4           6.3430    -0.0610     0.9440 hc         1 5MH       0.013700
     14 H5           6.3070     0.9120    -0.5330 hc         1 5MH       0.013700
     15 H6           4.2680    -0.0020    -2.1330 h4         1 5MH       0.148000
     16 H7           1.6310     0.8720    -2.7300 ho         1 5MH       0.420000
@<TRIPOS>BOND
     1     1     2 2   
     2     2     3 1   
     3     2     8 1   
     4     3     4 2   
     5     3    10 1   
     6     4     5 1   
     7     4    11 1   
     8     5     6 1   
     9     5     7 2   
    10     6    12 1   
    11     6    13 1   
    12     6    14 1   
    13     7     8 1   
    14     7    15 1   
    15     8     9 1   
    16     9    16 1   
@<TRIPOS>SUBSTRUCTURE
     1 5MH         1 TEMP              0 ****  ****    0 ROOT
