@<TRIPOS>MOLECULE
molecule
   19    20     1     0     0
SMALL
bcc


@<TRIPOS>ATOM
      1 C5           0.0000     0.0000     0.0000 ca         1 5MI      -0.113300
      2 C6           1.3890     0.0000     0.0000 ca         1 5MI      -0.106000
      3 C7           2.0910     0.0000     1.1850 ca         1 5MI      -0.142000
      4 C8           1.4040     0.0000     2.3950 ca         1 5MI      -0.043200
      5 N1           1.8050     0.0000     3.7120 na         1 5MI      -0.184400
      6 C4          -0.6940     0.0000     1.1760 ca         1 5MI      -0.079000
      7 C9          -0.0030     0.0000     2.3890 ca         1 5MI      -0.100800
      8 C3          -0.4140     0.0010     3.7950 cc         1 5MI      -0.199200
      9 C2           0.7090     0.0010     4.5320 cd         1 5MI      -0.104100
     10 CAJ         -0.7470     0.0060    -1.3100 c3         1 5MI      -0.041800
     11 H6           1.9260    -0.0000    -0.9410 ha         1 5MI       0.130000
     12 H4          -1.7770    -0.0000     1.1680 ha         1 5MI       0.130000
     13 HAJ1        -1.1600    -0.9780    -1.4950 hc         1 5MI       0.039700
     14 HAJ2        -1.5500     0.7320    -1.2640 hc         1 5MI       0.039700
     15 HAJ3        -0.0670     0.2690    -2.1110 hc         1 5MI       0.039700
     16 H7           3.1740    -0.0000     1.1750 ha         1 5MI       0.124000
     17 H1           2.7560    -0.0000     4.0240 hn         1 5MI       0.293700
     18 H2           0.7420     0.0010     5.6140 h4         1 5MI       0.163000
     19 H3          -1.4310     0.0010     4.1700 ha         1 5MI       0.153000
@<TRIPOS>BOND
     1     1     2 ar
     2     1     6 ar
     3     1    10 1
     4     2     3 ar
     5     3     4 ar
     6     4     5 1
     7     4     7 ar
     8     5     9 1
     9     6     7 ar
    10     7     8 1
    11     8     9 2
    12     2    11 1
    13     6    12 1
    14    10    13 1
    15    10    14 1
    16    10    15 1
    17     3    16 1
    18     5    17 1
    19     9    18 1
    20     8    19 1
@<TRIPOS>SUBSTRUCTURE
     1 5MI         1 TEMP              0 ****  ****    0 ROOT
