@<TRIPOS>MOLECULE
5MI
   19    20     1     0     0
SMALL
bcc


@<TRIPOS>ATOM
      1 C5         -0.0250    0.0070   -0.0010 ca        1 5MI     -0.107300
      2 C6          1.3880    0.0430    0.0100 ca        1 5MI     -0.112000
      3 C7          2.1140    0.0470    1.1880 ca        1 5MI     -0.143000
      4 C8          1.3990    0.0150    2.3960 ca        1 5MI     -0.051200
      5 N1          1.8360    0.0110    3.7230 na        1 5MI     -0.196400
      6 C4         -0.7400   -0.0250    1.1920 ca        1 5MI     -0.081000
      7 C9         -0.0470   -0.0210    2.4020 ca        1 5MI     -0.092800
      8 C3         -0.4500   -0.0470    3.7900 cc        1 5MI     -0.188200
      9 C2          0.7130   -0.0270    4.5550 cd        1 5MI     -0.109100
     10 CAJ        -0.7290    0.0050   -1.3050 c3        1 5MI     -0.046800
     11 H6          1.9200    0.0670   -0.9540 ha        1 5MI      0.128000
     12 H4         -1.8390   -0.0520    1.1890 ha        1 5MI      0.133000
     13 HAJ1       -1.8370   -0.0390   -1.1690 hc        1 5MI      0.040033
     14 HAJ2       -0.4130   -0.8780   -1.9150 hc        1 5MI      0.040033
     15 HAJ3       -0.4810    0.9320   -1.8810 hc        1 5MI      0.040033
     16 H7          3.2110    0.0750    1.1790 ha        1 5MI      0.130000
     17 H1          2.7750    0.0310    4.0160 hn        1 5MI      0.296700
     18 H2          0.8310   -0.0360    5.6400 h4        1 5MI      0.163000
     19 H3         -1.4710   -0.0770    4.1560 ha        1 5MI      0.156000
@<TRIPOS>BOND
     1    1    2 ar  
     2    1    6 ar  
     3    1   10 1   
     4    2    3 ar  
     5    2   11 1   
     6    3    4 ar  
     7    3   16 1   
     8    4    5 1   
     9    4    7 ar  
    10    5    9 1   
    11    5   17 1   
    12    6    7 ar  
    13    6   12 1   
    14    7    8 1   
    15    8    9 2   
    16    8   19 1   
    17    9   18 1   
    18   10   13 1   
    19   10   14 1   
    20   10   15 1   
@<TRIPOS>SUBSTRUCTURE
     1 5MI         1 TEMP              0 ****  ****    0 ROOT
