@<TRIPOS>MOLECULE
molecule
   45    47     1     0     0
SMALL
bcc


@<TRIPOS>ATOM
      1 C3           0.0000     0.0000     0.0000 ca         1 5MJ       0.013600
      2 C4           1.3860    -0.0020     2.3970 ca         1 5MJ       0.128100
      3 C5           1.3890     0.0000     0.0000 ca         1 5MJ      -0.104500
      4 C6           2.0790     0.0000     1.1960 ca         1 5MJ      -0.175500
      5 C2          -0.0020     0.0030     2.3970 ca         1 5MJ      -0.175500
      6 C1          -0.6930     0.0040     1.2020 ca         1 5MJ      -0.104500
      7 C19         -7.7620    -2.3620    -6.8890 c          1 5MJ       0.583300
      8 C21         -7.1070    -3.6610    -6.4760 c3         1 5MJ      -0.191400
      9 C23         -5.6480    -3.2680    -6.1750 c3         1 5MJ      -0.073200
     10 C22         -5.5930    -1.7820    -6.4420 c2         1 5MJ       0.149800
     11 C20         -6.8030    -1.3480    -6.8410 ce         1 5MJ      -0.246400
     12 C25         -7.0960     0.0890    -7.1900 c3         1 5MJ      -0.032900
     13 C15         -3.8350    -0.9190    -5.0740 ca         1 5MJ       0.222600
     14 C13         -4.3870    -1.5380    -3.9570 ca         1 5MJ      -0.204000
     15 C11         -3.7500    -1.4600    -2.7390 ca         1 5MJ      -0.020000
     16 C14         -2.6320    -0.2250    -4.9660 ca         1 5MJ      -0.054600
     17 Cl          -1.9440     0.5400    -6.3630 cl         1 5MJ      -0.106400
     18 C12         -1.9900    -0.1430    -3.7500 ca         1 5MJ      -0.054000
     19 C10         -2.5460    -0.7600    -2.6250 ca         1 5MJ      -0.191600
     20 C8          -1.8600    -0.6750    -1.3210 c          1 5MJ       0.681700
     21 O9          -2.3430    -1.2160    -0.3440 o          1 5MJ      -0.600100
     22 N7          -0.7000     0.0010    -1.2130 ns         1 5MJ      -0.473100
     23 O16          2.0660    -0.0030     3.5750 os         1 5MJ      -0.328900
     24 C17          3.4930    -0.0080     3.5000 c3         1 5MJ       0.128700
     25 H1           1.9310    -0.0010    -0.9380 ha         1 5MJ       0.149500
     26 H2           3.1620    -0.0020     1.1970 ha         1 5MJ       0.142000
     27 H3          -0.5430     0.0040     3.3360 ha         1 5MJ       0.142000
     28 H4          -1.7760     0.0060     1.2030 ha         1 5MJ       0.149500
     29 H5          -7.1450    -4.3780    -7.2870 hc         1 5MJ       0.080200
     30 H6          -5.4090    -3.4740    -5.1390 hc         1 5MJ       0.069700
     31 H7          -6.3610     0.4450    -7.9010 hc         1 5MJ       0.049367
     32 H8          -7.0540     0.6940    -6.2930 hc         1 5MJ       0.049367
     33 H9          -8.0850     0.1590    -7.6270 hc         1 5MJ       0.049367
     34 H10         -4.1040    -0.5260    -7.1010 hn         1 5MJ       0.468800
     35 H11         -5.3210    -2.0810    -4.0450 ha         1 5MJ       0.154000
     36 H12         -4.1820    -1.9410    -1.8690 ha         1 5MJ       0.165000
     37 H13         -1.0560     0.3980    -3.6660 ha         1 5MJ       0.140000
     38 H14         -0.3600     0.5370    -1.9860 hn         1 5MJ       0.323500
     39 H15          3.8300     0.8760     2.9730 h1         1 5MJ       0.040700
     40 H16          3.9070    -0.0120     4.5010 h1         1 5MJ       0.040700
     41 H17          3.8230    -0.8930     2.9700 h1         1 5MJ       0.040700
     42 H18         -7.5820    -4.0580    -5.5870 hc         1 5MJ       0.080200
     43 H19         -4.9720    -3.7950    -6.8380 hc         1 5MJ       0.069700
     44 N18         -4.4830    -0.9990    -6.3050 nu         1 5MJ      -0.663400
     45 O26         -8.9240    -2.2250    -7.2130 o          1 5MJ      -0.515100
@<TRIPOS>BOND
     1    24    23 1
     2    23     2 1
     3     2     5 ar
     4     2     4 ar
     5     5     6 ar
     6     4     3 ar
     7     6     1 ar
     8     3     1 ar
     9     1    22 1
    10    21    20 2
    11    22    20 1
    12    20    19 1
    13    19    15 ar
    14    19    18 ar
    15    15    14 ar
    16    18    16 ar
    17    14    13 ar
    18    16    13 ar
    19    16    17 1
    20    13    44 1
    21    44    10 1
    22    10     9 1
    23    10    11 2
    24     9     8 1
    25    11    12 1
    26    11     7 1
    27     8     7 1
    28     7    45 2
    29     3    25 1
    30     4    26 1
    31     5    27 1
    32     6    28 1
    33     8    29 1
    34     9    30 1
    35    12    31 1
    36    12    32 1
    37    12    33 1
    38    44    34 1
    39    14    35 1
    40    15    36 1
    41    18    37 1
    42    22    38 1
    43    24    39 1
    44    24    40 1
    45    24    41 1
    46     8    42 1
    47     9    43 1
@<TRIPOS>SUBSTRUCTURE
     1 5MJ         1 TEMP              0 ****  ****    0 ROOT
