@<TRIPOS>MOLECULE
5MJ
   45    47     1     0     0
SMALL
bcc


@<TRIPOS>ATOM
      1 C3           0.0000     0.0000     0.0000 ca         1 5MJ      -0.136400
      2 C4           1.3860    -0.0020     2.3970 ca         1 5MJ       0.141100
      3 C5           1.3890     0.0000     0.0000 ca         1 5MJ      -0.072500
      4 C6           2.0790     0.0000     1.1960 ca         1 5MJ      -0.160500
      5 C2          -0.0020     0.0030     2.3970 ca         1 5MJ      -0.160500
      6 C1          -0.6930     0.0040     1.2020 ca         1 5MJ      -0.072500
      7 C19         -7.7620    -2.3620    -6.8890 c          1 5MJ       0.629300
      8 C21         -7.1070    -3.6610    -6.4760 c3         1 5MJ      -0.127400
      9 C23         -5.6480    -3.2680    -6.1750 c3         1 5MJ      -0.004200
     10 C22         -5.5930    -1.7820    -6.4420 c2         1 5MJ      -0.007200
     11 C20         -6.8030    -1.3480    -6.8410 ce         1 5MJ      -0.253400
     12 C25         -7.0960     0.0890    -7.1900 c3         1 5MJ       0.079100
     13 C15         -3.8350    -0.9190    -5.0740 ca         1 5MJ       0.065600
     14 C13         -4.3870    -1.5380    -3.9570 ca         1 5MJ      -0.194000
     15 C11         -3.7500    -1.4600    -2.7390 ca         1 5MJ       0.021000
     16 C14         -2.6320    -0.2250    -4.9660 ca         1 5MJ      -0.120600
     17 Cl          -1.9440     0.5400    -6.3630 cl         1 5MJ      -0.019400
     18 C12         -1.9900    -0.1430    -3.7500 ca         1 5MJ      -0.032000
     19 C10         -2.5460    -0.7600    -2.6250 ca         1 5MJ      -0.205600
     20 C8          -1.8600    -0.6750    -1.3210 c          1 5MJ       0.591700
     21 O9          -2.3430    -1.2160    -0.3440 o          1 5MJ      -0.644100
     22 N7          -0.7000     0.0010    -1.2130 ns         1 5MJ      -0.031100
     23 O16          2.0660    -0.0030     3.5750 os         1 5MJ      -0.306900
     24 C17          3.4930    -0.0080     3.5000 c3         1 5MJ       0.244700
     25 H1           1.9310    -0.0010    -0.9380 ha         1 5MJ       0.124000
     26 H2           3.1620    -0.0020     1.1970 ha         1 5MJ       0.119000
     27 H3          -0.5430     0.0040     3.3360 ha         1 5MJ       0.119000
     28 H4          -1.7760     0.0060     1.2030 ha         1 5MJ       0.124000
     29 H5          -7.1450    -4.3780    -7.2870 hc         1 5MJ       0.045700
     30 H6          -5.4090    -3.4740    -5.1390 hc         1 5MJ       0.038700
     31 H7          -6.3610     0.4450    -7.9010 hc         1 5MJ       0.013367
     32 H8          -7.0540     0.6940    -6.2930 hc         1 5MJ       0.013367
     33 H9          -8.0850     0.1590    -7.6270 hc         1 5MJ       0.013367
     34 H10         -4.1040    -0.5260    -7.1010 hn         1 5MJ       0.299800
     35 H11         -5.3210    -2.0810    -4.0450 ha         1 5MJ       0.134000
     36 H12         -4.1820    -1.9410    -1.8690 ha         1 5MJ       0.129000
     37 H13         -1.0560     0.3980    -3.6660 ha         1 5MJ       0.110000
     38 H14         -0.3600     0.5370    -1.9860 hn         1 5MJ       0.169500
     39 H15          3.8300     0.8760     2.9730 h1         1 5MJ      -0.003300
     40 H16          3.9070    -0.0120     4.5010 h1         1 5MJ      -0.003300
     41 H17          3.8230    -0.8930     2.9700 h1         1 5MJ      -0.003300
     42 H18         -7.5820    -4.0580    -5.5870 hc         1 5MJ       0.045700
     43 H19         -4.9720    -3.7950    -6.8380 hc         1 5MJ       0.038700
     44 N18         -4.4830    -0.9990    -6.3050 nu         1 5MJ      -0.201400
     45 O26         -8.9240    -2.2250    -7.2130 o          1 5MJ      -0.548100
@<TRIPOS>BOND
     1     1     3 ar  
     2     1     6 ar  
     3     1    22 1   
     4     2     4 ar  
     5     2     5 ar  
     6     2    23 1   
     7     3     4 ar  
     8     3    25 1   
     9     4    26 1   
    10     5     6 ar  
    11     5    27 1   
    12     6    28 1   
    13     7     8 1   
    14     7    11 1   
    15     7    45 2   
    16     8     9 1   
    17     8    29 1   
    18     8    42 1   
    19     9    10 1   
    20     9    30 1   
    21     9    43 1   
    22    10    11 2   
    23    10    44 1   
    24    11    12 1   
    25    12    31 1   
    26    12    32 1   
    27    12    33 1   
    28    13    14 ar  
    29    13    16 ar  
    30    13    44 1   
    31    14    15 ar  
    32    14    35 1   
    33    15    19 ar  
    34    15    36 1   
    35    16    17 1   
    36    16    18 ar  
    37    18    19 ar  
    38    18    37 1   
    39    19    20 1   
    40    20    21 2   
    41    20    22 1   
    42    22    38 1   
    43    23    24 1   
    44    24    39 1   
    45    24    40 1   
    46    24    41 1   
    47    34    44 1   
@<TRIPOS>SUBSTRUCTURE
     1 5MJ         1 TEMP              0 ****  ****    0 ROOT
