@<TRIPOS>MOLECULE
5MK
   19    19     1     0     0
SMALL
bcc


@<TRIPOS>ATOM
      1 NAB          0.0000     0.0000     0.0000 nv         1 5MK      -0.483200
      2 CAI          1.3890     0.0000     0.0000 ca         1 5MK       0.150600
      3 CAE          2.0870     0.0000     1.2010 ca         1 5MK      -0.119000
      4 CAF          3.4670     0.0000     1.1980 ca         1 5MK       0.008000
      5 CAJ          4.1670     0.0010     0.0000 ca         1 5MK      -0.059600
      6 ClA          5.9030     0.0020     0.0140 cl         1 5MK       0.050600
      7 CAG          3.4900     0.0010    -1.2010 ca         1 5MK      -0.076000
      8 CAK          2.0930    -0.0050    -1.2130 ca         1 5MK      -0.273600
      9 CAH          1.3640    -0.0110    -2.4950 c          1 5MK       0.359700
     10 OAC          0.1520     0.0920    -2.5050 o          1 5MK      -0.454100
     11 NAA          2.0390    -0.1320    -3.6550 nz         1 5MK       0.200600
     12 H1          -0.5000     0.7900     0.3580 hn         1 5MK       0.297800
     13 H2          -0.5000    -0.7820    -0.3750 hn         1 5MK       0.297800
     14 H3           1.5480    -0.0010     2.1400 ha         1 5MK       0.140000
     15 H4           4.0080     0.0000     2.1370 ha         1 5MK       0.134000
     16 H5           4.0410    -0.0010    -2.1330 ha         1 5MK       0.091000
     17 H6           1.3910    -0.1650    -4.4160 hn         1 5MK       0.245133
     18 H7           2.6480     0.6540    -3.7700 hn         1 5MK       0.245133
     19 HAA3         2.5800    -0.9730    -3.6400 hn         1 5MK       0.245133
@<TRIPOS>BOND
     1     1     2 1   
     2     1    12 1   
     3     1    13 1   
     4     2     3 ar  
     5     2     8 ar  
     6     3     4 ar  
     7     3    14 1   
     8     4     5 ar  
     9     4    15 1   
    10     5     6 1   
    11     5     7 ar  
    12     7     8 ar  
    13     7    16 1   
    14     8     9 1   
    15     9    10 2   
    16     9    11 1   
    17    11    17 1   
    18    11    18 1   
    19    11    19 1   
@<TRIPOS>SUBSTRUCTURE
     1 5MK         1 TEMP              0 ****  ****    0 ROOT
