@<TRIPOS>MOLECULE
molecule
   19    19     1     0     0
SMALL
bcc


@<TRIPOS>ATOM
      1 NAB          0.0000     0.0000     0.0000 nv         1 5MK      -0.952200
      2 CAI          1.3890     0.0000     0.0000 ca         1 5MK       0.284600
      3 CAE          2.0870     0.0000     1.2010 ca         1 5MK      -0.146000
      4 CAF          3.4670     0.0000     1.1980 ca         1 5MK      -0.032000
      5 CAJ          4.1670     0.0010     0.0000 ca         1 5MK       0.015400
      6 ClA          5.9030     0.0020     0.0140 cl         1 5MK      -0.046400
      7 CAG          3.4900     0.0010    -1.2010 ca         1 5MK      -0.103000
      8 CAK          2.0930    -0.0050    -1.2130 ca         1 5MK      -0.253600
      9 CAH          1.3640    -0.0110    -2.4950 c          1 5MK       0.510700
     10 OAC          0.1520     0.0920    -2.5050 o          1 5MK      -0.424100
     11 NAA          2.0390    -0.1320    -3.6550 nz         1 5MK      -0.678400
     12 H1          -0.5000     0.7900     0.3580 hn         1 5MK       0.458300
     13 H2          -0.5000    -0.7820    -0.3750 hn         1 5MK       0.458300
     14 H3           1.5480    -0.0010     2.1400 ha         1 5MK       0.179000
     15 H4           4.0080     0.0000     2.1370 ha         1 5MK       0.177000
     16 H5           4.0410    -0.0010    -2.1330 ha         1 5MK       0.122000
     17 H6           1.3910    -0.1650    -4.4160 hn         1 5MK       0.476800
     18 H7           2.6480     0.6540    -3.7700 hn         1 5MK       0.476800
     19 HAA3         2.5800    -0.9730    -3.6400 hn         1 5MK       0.476800
@<TRIPOS>BOND
     1     3     4 ar  
     2     3     2 ar  
     3     1     2 1   
     4     4     5 ar  
     5     2     8 ar  
     6     5     7 ar  
     7     5     6 1   
     8     8     7 ar  
     9     8     9 1   
    10     9    10 2   
    11     9    11 1   
    12     1    12 1   
    13     1    13 1   
    14     3    14 1   
    15     4    15 1   
    16     7    16 1   
    17    11    17 1   
    18    11    18 1   
    19    19    11 1   
@<TRIPOS>SUBSTRUCTURE
     1 5MK         1 TEMP              0 ****  ****    0 ROOT
