@<TRIPOS>MOLECULE
molecule
   61    65     1     0     0
SMALL
bcc


@<TRIPOS>ATOM
      1 C4           0.0000     0.0000     0.0000 c3         1 5ML       0.161300
      2 C5           3.4130    -0.0730     1.4280 ca         1 5ML       0.042600
      3 C6           4.0360    -1.1800     2.0080 ca         1 5ML       0.088600
      4 N1           2.0170     0.0000     1.3870 nh         1 5ML      -0.628000
      5 C7           3.7760    -3.0100     3.5080 c          1 5ML       0.675700
      6 C8           3.0100    -4.1800     3.9850 ca         1 5ML      -0.147600
      7 N2           3.2650    -2.2190     2.5420 ns         1 5ML      -0.457100
      8 C9           1.7590    -4.4710     3.4380 ca         1 5ML      -0.109000
      9 C10          1.0500    -5.5660     3.8890 ca         1 5ML      -0.134000
     10 C11          1.5770    -6.3750     4.8800 ca         1 5ML      -0.103000
     11 C12          2.8160    -6.0920     5.4270 ca         1 5ML      -0.092300
     12 N3           9.6060    -1.4770     2.2010 nb         1 5ML      -0.679000
     13 C13          3.3820    -6.9780     6.5060 c3         1 5ML      -0.047800
     14 C14          3.5380    -5.0040     4.9810 ca         1 5ML      -0.066000
     15 C15          5.4180    -1.2480     2.0530 ca         1 5ML      -0.132000
     16 O            4.8640    -2.7580     3.9860 o          1 5ML      -0.603100
     17 C16          6.1820    -0.2100     1.5200 cp         1 5ML      -0.018000
     18 C19          7.6630    -0.2800     1.5670 cp         1 5ML      -0.158300
     19 C27          8.4270     0.7490     1.0370 ca         1 5ML      -0.077000
     20 C26          9.8270     0.6340     1.1070 ca         1 5ML      -0.153300
     21 C25         10.6670     1.6360     0.5930 ca         1 5ML      -0.111000
     22 C24         12.0180     1.4900     0.6780 ca         1 5ML      -0.127000
     23 C23         12.5790     0.3590     1.2690 ca         1 5ML      -0.122000
     24 C22         11.7960    -0.6310     1.7770 ca         1 5ML      -0.162300
     25 C21         10.3960    -0.5170     1.7090 ca         1 5ML       0.417600
     26 C20          8.3010    -1.3890     2.1460 ca         1 5ML       0.444200
     27 C17          5.5540     0.8910     0.9430 ca         1 5ML      -0.136000
     28 C18          4.1760     0.9580     0.8990 ca         1 5ML      -0.139000
     29 C2           1.5290     1.1800     2.1140 c3         1 5ML       0.168300
     30 C1          -0.0010     1.1810     2.1130 c3         1 5ML       0.161300
     31 C3           1.5300     0.0000     0.0000 c3         1 5ML       0.168300
     32 N           -0.4880     1.1810     0.7260 n3         1 5ML      -0.733600
     33 C           -1.9540     1.2570     0.6830 c3         1 5ML       0.153100
     34 H1          -0.3600     0.0310    -1.0210 h1         1 5ML       0.040700
     35 H2          -0.3600    -0.8970     0.4880 h1         1 5ML       0.040700
     36 H3           2.3530    -2.4060     2.1740 hn         1 5ML       0.340500
     37 H4           1.3450    -3.8390     2.6620 ha         1 5ML       0.127000
     38 H5           0.0800    -5.7930     3.4650 ha         1 5ML       0.133000
     39 H6           1.0170    -7.2330     5.2300 ha         1 5ML       0.134000
     40 H7           3.7880    -6.3650     7.3010 hc         1 5ML       0.046700
     41 H8           4.1690    -7.5960     6.0900 hc         1 5ML       0.046700
     42 H9           2.5980    -7.6110     6.9020 hc         1 5ML       0.046700
     43 H10          4.5080    -4.7840     5.4100 ha         1 5ML       0.158000
     44 H11          5.9040    -2.1050     2.5020 ha         1 5ML       0.178000
     45 H12          7.9760     1.4680     0.3640 ha         1 5ML       0.142000
     46 H13         10.2430     2.5190     0.1320 ha         1 5ML       0.132000
     47 H14         12.6660     2.2630     0.2820 ha         1 5ML       0.130000
     48 H15         13.6570     0.2670     1.3240 ha         1 5ML       0.132000
     49 H16         12.2490    -1.5030     2.2320 ha         1 5ML       0.149000
     50 H17          7.6990    -2.1900     2.5570 h4         1 5ML       0.037100
     51 H18          6.1480     1.6970     0.5290 ha         1 5ML       0.132000
     52 H19          3.6900     1.8150     0.4500 ha         1 5ML       0.138000
     53 H20          1.8880     1.1480     3.1360 h1         1 5ML       0.047700
     54 H21          1.8900     2.0780     1.6270 h1         1 5ML       0.047700
     55 H22         -0.3610     2.0670     2.6210 h1         1 5ML       0.040700
     56 H23         -0.3620     0.2950     2.6210 h1         1 5ML       0.040700
     57 H24          1.8900     0.8860    -0.5080 h1         1 5ML       0.047700
     58 H25          1.8900    -0.8860    -0.5080 h1         1 5ML       0.047700
     59 H27         -2.2840     2.1530     1.1950 h1         1 5ML       0.032700
     60 H28         -2.3750     0.3860     1.1700 h1         1 5ML       0.032700
     61 H29         -2.2830     1.2880    -0.3490 h1         1 5ML       0.032700
@<TRIPOS>BOND
     1    33    32 1
     2    32     1 1
     3    32    30 1
     4     1    31 1
     5    30    29 1
     6    31     4 1
     7    13    11 1
     8    29     4 1
     9     4     2 1
    10    10    11 ar
    11    10     9 ar
    12    11    14 ar
    13     9     8 ar
    14    14     6 ar
    15     8     6 ar
    16     2    28 ar
    17     2     3 ar
    18     6     5 1
    19     7     5 1
    20     7     3 1
    21    28    27 ar
    22     5    16 2
    23     3    15 ar
    24    27    17 ar
    25    15    17 ar
    26    17    18 1
    27    18    26 ar
    28    18    19 ar
    29    26    12 ar
    30    19    20 ar
    31    12    25 ar
    32    20    25 ar
    33    20    21 ar
    34    25    24 ar
    35    21    22 ar
    36    24    23 ar
    37    22    23 ar
    38     1    34 1
    39     1    35 1
    40     7    36 1
    41     8    37 1
    42     9    38 1
    43    10    39 1
    44    13    40 1
    45    13    41 1
    46    13    42 1
    47    14    43 1
    48    15    44 1
    49    19    45 1
    50    21    46 1
    51    22    47 1
    52    23    48 1
    53    24    49 1
    54    26    50 1
    55    27    51 1
    56    28    52 1
    57    29    53 1
    58    29    54 1
    59    30    55 1
    60    30    56 1
    61    31    57 1
    62    31    58 1
    63    33    59 1
    64    33    60 1
    65    33    61 1
@<TRIPOS>SUBSTRUCTURE
     1 5ML         1 TEMP              0 ****  ****    0 ROOT
