@<TRIPOS>MOLECULE
5ML
   61    65     1     0     0
SMALL
bcc


@<TRIPOS>ATOM
      1 C4           0.0000     0.0000     0.0000 c3         1 5ML       0.153800
      2 C5           3.4130    -0.0730     1.4280 ca         1 5ML      -0.032400
      3 C6           4.0360    -1.1800     2.0080 ca         1 5ML      -0.055400
      4 N1           2.0170     0.0000     1.3870 nh         1 5ML      -0.412000
      5 C7           3.7760    -3.0100     3.5080 c          1 5ML       0.585700
      6 C8           3.0100    -4.1800     3.9850 ca         1 5ML      -0.159600
      7 N2           3.2650    -2.2190     2.5420 ns         1 5ML      -0.017100
      8 C9           1.7590    -4.4710     3.4380 ca         1 5ML      -0.091000
      9 C10          1.0500    -5.5660     3.8890 ca         1 5ML      -0.105000
     10 C11          1.5770    -6.3750     4.8800 ca         1 5ML      -0.077000
     11 C12          2.8160    -6.0920     5.4270 ca         1 5ML      -0.100300
     12 N3           9.6060    -1.4770     2.2010 nb         1 5ML      -0.565000
     13 C13          3.3820    -6.9780     6.5060 c3         1 5ML       0.064200
     14 C14          3.5380    -5.0040     4.9810 ca         1 5ML      -0.033000
     15 C15          5.4180    -1.2480     2.0530 ca         1 5ML      -0.120000
     16 O            4.8640    -2.7580     3.9860 o          1 5ML      -0.643100
     17 C16          6.1820    -0.2100     1.5200 cp         1 5ML      -0.006000
     18 C19          7.6630    -0.2800     1.5670 cp         1 5ML      -0.149300
     19 C27          8.4270     0.7490     1.0370 ca         1 5ML      -0.061000
     20 C26          9.8270     0.6340     1.1070 ca         1 5ML      -0.146300
     21 C25         10.6670     1.6360     0.5930 ca         1 5ML      -0.084000
     22 C24         12.0180     1.4900     0.6780 ca         1 5ML      -0.098000
     23 C23         12.5790     0.3590     1.2690 ca         1 5ML      -0.097000
     24 C22         11.7960    -0.6310     1.7770 ca         1 5ML      -0.137300
     25 C21         10.3960    -0.5170     1.7090 ca         1 5ML       0.370600
     26 C20          8.3010    -1.3890     2.1460 ca         1 5ML       0.415200
     27 C17          5.5540     0.8910     0.9430 ca         1 5ML      -0.112000
     28 C18          4.1760     0.9580     0.8990 ca         1 5ML      -0.109000
     29 C2           1.5290     1.1800     2.1140 c3         1 5ML       0.146800
     30 C1          -0.0010     1.1810     2.1130 c3         1 5ML       0.153800
     31 C3           1.5300     0.0000     0.0000 c3         1 5ML       0.146800
     32 N           -0.4880     1.1810     0.7260 n3         1 5ML      -0.548600
     33 C           -1.9540     1.2570     0.6830 c3         1 5ML       0.189100
     34 H1          -0.3600     0.0310    -1.0210 h1         1 5ML       0.013200
     35 H2          -0.3600    -0.8970     0.4880 h1         1 5ML       0.013200
     36 H3           2.3530    -2.4060     2.1740 hn         1 5ML       0.186500
     37 H4           1.3450    -3.8390     2.6620 ha         1 5ML       0.103000
     38 H5           0.0800    -5.7930     3.4650 ha         1 5ML       0.105000
     39 H6           1.0170    -7.2330     5.2300 ha         1 5ML       0.106000
     40 H7           3.7880    -6.3650     7.3010 hc         1 5ML       0.009700
     41 H8           4.1690    -7.5960     6.0900 hc         1 5ML       0.009700
     42 H9           2.5980    -7.6110     6.9020 hc         1 5ML       0.009700
     43 H10          4.5080    -4.7840     5.4100 ha         1 5ML       0.130000
     44 H11          5.9040    -2.1050     2.5020 ha         1 5ML       0.167000
     45 H12          7.9760     1.4680     0.3640 ha         1 5ML       0.119000
     46 H13         10.2430     2.5190     0.1320 ha         1 5ML       0.106000
     47 H14         12.6660     2.2630     0.2820 ha         1 5ML       0.102000
     48 H15         13.6570     0.2670     1.3240 ha         1 5ML       0.102000
     49 H16         12.2490    -1.5030     2.2320 ha         1 5ML       0.117000
     50 H17          7.6990    -2.1900     2.5570 h4         1 5ML      -0.003900
     51 H18          6.1480     1.6970     0.5290 ha         1 5ML       0.111000
     52 H19          3.6900     1.8150     0.4500 ha         1 5ML       0.114000
     53 H20          1.8880     1.1480     3.1360 h1         1 5ML       0.020700
     54 H21          1.8900     2.0780     1.6270 h1         1 5ML       0.020700
     55 H22         -0.3610     2.0670     2.6210 h1         1 5ML       0.013200
     56 H23         -0.3620     0.2950     2.6210 h1         1 5ML       0.013200
     57 H24          1.8900     0.8860    -0.5080 h1         1 5ML       0.020700
     58 H25          1.8900    -0.8860    -0.5080 h1         1 5ML       0.020700
     59 H27         -2.2840     2.1530     1.1950 h1         1 5ML       0.000700
     60 H28         -2.3750     0.3860     1.1700 h1         1 5ML       0.000700
     61 H29         -2.2830     1.2880    -0.3490 h1         1 5ML       0.000700
@<TRIPOS>BOND
     1     1    31 1   
     2     1    32 1   
     3     1    34 1   
     4     1    35 1   
     5     2     3 ar  
     6     2     4 1   
     7     2    28 ar  
     8     3     7 1   
     9     3    15 ar  
    10     4    29 1   
    11     4    31 1   
    12     5     6 1   
    13     5     7 1   
    14     5    16 2   
    15     6     8 ar  
    16     6    14 ar  
    17     7    36 1   
    18     8     9 ar  
    19     8    37 1   
    20     9    10 ar  
    21     9    38 1   
    22    10    11 ar  
    23    10    39 1   
    24    11    13 1   
    25    11    14 ar  
    26    12    25 ar  
    27    12    26 ar  
    28    13    40 1   
    29    13    41 1   
    30    13    42 1   
    31    14    43 1   
    32    15    17 ar  
    33    15    44 1   
    34    17    18 1   
    35    17    27 ar  
    36    18    19 ar  
    37    18    26 ar  
    38    19    20 ar  
    39    19    45 1   
    40    20    21 ar  
    41    20    25 ar  
    42    21    22 ar  
    43    21    46 1   
    44    22    23 ar  
    45    22    47 1   
    46    23    24 ar  
    47    23    48 1   
    48    24    25 ar  
    49    24    49 1   
    50    26    50 1   
    51    27    28 ar  
    52    27    51 1   
    53    28    52 1   
    54    29    30 1   
    55    29    53 1   
    56    29    54 1   
    57    30    32 1   
    58    30    55 1   
    59    30    56 1   
    60    31    57 1   
    61    31    58 1   
    62    32    33 1   
    63    33    59 1   
    64    33    60 1   
    65    33    61 1   
@<TRIPOS>SUBSTRUCTURE
     1 5ML         1 TEMP              0 ****  ****    0 ROOT
