@<TRIPOS>MOLECULE
5MN
   60    64     1     0     0
SMALL
bcc


@<TRIPOS>ATOM
      1 C4           0.0000     0.0000     0.0000 c3         1 5MN       0.153800
      2 C5           3.4140    -0.0730     1.4260 ca         1 5MN      -0.041400
      3 C6           4.0390    -1.1800     2.0040 ca         1 5MN      -0.059400
      4 N1           2.0190     0.0000     1.3860 nh         1 5MN      -0.410000
      5 C7           3.7790    -3.0100     3.5040 c          1 5MN       0.583700
      6 C8           3.0140    -4.1810     3.9820 ca         1 5MN      -0.157600
      7 N2           3.2680    -2.2200     2.5390 ns         1 5MN      -0.013100
      8 C9           1.7630    -4.4730     3.4350 ca         1 5MN      -0.091000
      9 C10          1.0560    -5.5670     3.8860 ca         1 5MN      -0.105000
     10 C11          1.5820    -6.3760     4.8770 ca         1 5MN      -0.079000
     11 C12          2.8220    -6.0930     5.4230 ca         1 5MN      -0.101300
     12 N3          11.7240    -0.3170     2.0430 na         1 5MN       0.354600
     13 C13          3.3890    -6.9800     6.5010 c3         1 5MN       0.065200
     14 C14          3.5440    -5.0040     4.9770 ca         1 5MN      -0.035000
     15 C15          5.4200    -1.2480     2.0480 ca         1 5MN      -0.141000
     16 O            4.8680    -2.7590     3.9820 o          1 5MN      -0.649100
     17 C16          6.1840    -0.2110     1.5150 cp         1 5MN       0.005000
     18 C17          5.5560     0.8910     0.9390 ca         1 5MN      -0.103000
     19 C18          4.1780     0.9570     0.8960 ca         1 5MN      -0.109000
     20 C2           1.5310     1.1800     2.1130 c3         1 5MN       0.146300
     21 C1           0.0010     1.1810     2.1140 c3         1 5MN       0.153800
     22 C3           1.5310     0.0000     0.0000 c3         1 5MN       0.146300
     23 N           -0.4870     1.1810     0.7270 n3         1 5MN      -0.548600
     24 C           -1.9530     1.2570     0.6850 c3         1 5MN       0.189100
     25 C19          7.6010    -0.3910     1.7700 cp         1 5MN      -0.068000
     26 C26          8.1870    -1.3670     2.5800 ca         1 5MN      -0.064000
     27 C25          9.5430    -1.4250     2.7340 ca         1 5MN      -0.103000
     28 C22         10.3600    -0.5060     2.0820 ca         1 5MN      -0.224200
     29 C23         12.0240     0.7460     1.2370 cc         1 5MN      -0.273100
     30 C24         10.8960     1.2690     0.7290 cd         1 5MN      -0.160200
     31 C21          9.7820     0.4810     1.2630 ca         1 5MN      -0.107800
     32 C20          8.3970     0.5350     1.1100 ca         1 5MN      -0.048000
     33 H1          -0.3600     0.0320    -1.0210 h1         1 5MN       0.012950
     34 H2          -0.3600    -0.8970     0.4880 h1         1 5MN       0.012950
     35 H3           2.3520    -2.3980     2.1800 hn         1 5MN       0.184500
     36 H4           1.3490    -3.8400     2.6590 ha         1 5MN       0.104000
     37 H5           0.0850    -5.7940     3.4630 ha         1 5MN       0.104000
     38 H6           1.0220    -7.2350     5.2280 ha         1 5MN       0.106000
     39 H7          12.3950    -0.8720     2.5360 hn         1 5MN       0.112700
     40 H8           2.6050    -7.6140     6.8960 hc         1 5MN       0.009033
     41 H9           4.1770    -7.5950     6.0850 hc         1 5MN       0.009033
     42 H10          3.7930    -6.3670     7.2980 hc         1 5MN       0.009033
     43 H11          4.5140    -4.7830     5.4060 ha         1 5MN       0.129000
     44 H12          5.9070    -2.1050     2.4960 ha         1 5MN       0.169000
     45 H13          6.1490     1.6970     0.5250 ha         1 5MN       0.111000
     46 H14          3.6910     1.8150     0.4480 ha         1 5MN       0.113000
     47 H15          1.8910     2.0780     1.6260 h1         1 5MN       0.020450
     48 H16          1.8910     1.1480     3.1340 h1         1 5MN       0.020450
     49 H17         -0.3590     0.2950     2.6230 h1         1 5MN       0.012950
     50 H18         -0.3580     2.0670     2.6220 h1         1 5MN       0.012950
     51 H19          1.8910    -0.8860    -0.5080 h1         1 5MN       0.020450
     52 H20          1.8910     0.8860    -0.5090 h1         1 5MN       0.020450
     53 H22         -2.2820     1.3150    -0.3460 h1         1 5MN       0.000367
     54 H23         -2.2840     2.1390     1.2200 h1         1 5MN       0.000367
     55 H24         -2.3740     0.3730     1.1490 h1         1 5MN       0.000367
     56 H25          7.5590    -2.0870     3.0910 ha         1 5MN       0.125000
     57 H26          9.9830    -2.1870     3.3660 ha         1 5MN       0.100000
     58 H27         13.0230     1.1120     1.0370 h4         1 5MN       0.137000
     59 H28         10.8230     2.1170     0.0590 ha         1 5MN       0.128000
     60 H29          7.9590     1.2010     0.3760 ha         1 5MN       0.111000
@<TRIPOS>BOND
     1     1    22 1   
     2     1    23 1   
     3     1    33 1   
     4     1    34 1   
     5     2     3 ar  
     6     2     4 1   
     7     2    19 ar  
     8     3     7 1   
     9     3    15 ar  
    10     4    20 1   
    11     4    22 1   
    12     5     6 1   
    13     5     7 1   
    14     5    16 2   
    15     6     8 ar  
    16     6    14 ar  
    17     7    35 1   
    18     8     9 ar  
    19     8    36 1   
    20     9    10 ar  
    21     9    37 1   
    22    10    11 ar  
    23    10    38 1   
    24    11    13 1   
    25    11    14 ar  
    26    12    28 1   
    27    12    29 1   
    28    12    39 1   
    29    13    40 1   
    30    13    41 1   
    31    13    42 1   
    32    14    43 1   
    33    15    17 ar  
    34    15    44 1   
    35    17    18 ar  
    36    17    25 1   
    37    18    19 ar  
    38    18    45 1   
    39    19    46 1   
    40    20    21 1   
    41    20    47 1   
    42    20    48 1   
    43    21    23 1   
    44    21    49 1   
    45    21    50 1   
    46    22    51 1   
    47    22    52 1   
    48    23    24 1   
    49    24    53 1   
    50    24    54 1   
    51    24    55 1   
    52    25    26 ar  
    53    25    32 ar  
    54    26    27 ar  
    55    26    56 1   
    56    27    28 ar  
    57    27    57 1   
    58    28    31 ar  
    59    29    30 2   
    60    29    58 1   
    61    30    31 1   
    62    30    59 1   
    63    31    32 ar  
    64    32    60 1   
@<TRIPOS>SUBSTRUCTURE
     1 5MN         1 TEMP              0 ****  ****    0 ROOT
