@<TRIPOS>MOLECULE
molecule
   60    64     1     0     0
SMALL
bcc


@<TRIPOS>ATOM
      1 C4           0.0000     0.0000     0.0000 c3         1 5MN       0.161300
      2 C5           3.4140    -0.0730     1.4260 ca         1 5MN       0.033600
      3 C6           4.0390    -1.1800     2.0040 ca         1 5MN       0.084600
      4 N1           2.0190     0.0000     1.3860 nh         1 5MN      -0.627000
      5 C7           3.7790    -3.0100     3.5040 c          1 5MN       0.674700
      6 C8           3.0140    -4.1810     3.9820 ca         1 5MN      -0.145600
      7 N2           3.2680    -2.2200     2.5390 ns         1 5MN      -0.456100
      8 C9           1.7630    -4.4730     3.4350 ca         1 5MN      -0.109000
      9 C10          1.0560    -5.5670     3.8860 ca         1 5MN      -0.134000
     10 C11          1.5820    -6.3760     4.8770 ca         1 5MN      -0.105000
     11 C12          2.8220    -6.0930     5.4230 ca         1 5MN      -0.093300
     12 N3          11.7240    -0.3170     2.0430 na         1 5MN      -0.183400
     13 C13          3.3890    -6.9800     6.5010 c3         1 5MN      -0.047800
     14 C14          3.5440    -5.0040     4.9770 ca         1 5MN      -0.067000
     15 C15          5.4200    -1.2480     2.0480 ca         1 5MN      -0.146000
     16 O            4.8680    -2.7590     3.9820 o          1 5MN      -0.607100
     17 C16          6.1840    -0.2110     1.5150 cp         1 5MN      -0.007000
     18 C17          5.5560     0.8910     0.9390 ca         1 5MN      -0.131000
     19 C18          4.1780     0.9570     0.8960 ca         1 5MN      -0.137000
     20 C2           1.5310     1.1800     2.1130 c3         1 5MN       0.168300
     21 C1           0.0010     1.1810     2.1140 c3         1 5MN       0.161300
     22 C3           1.5310     0.0000     0.0000 c3         1 5MN       0.168300
     23 N           -0.4870     1.1810     0.7270 n3         1 5MN      -0.733600
     24 C           -1.9530     1.2570     0.6850 c3         1 5MN       0.152100
     25 C19          7.6010    -0.3910     1.7700 cp         1 5MN      -0.069000
     26 C26          8.1870    -1.3670     2.5800 ca         1 5MN      -0.083000
     27 C25          9.5430    -1.4250     2.7340 ca         1 5MN      -0.145000
     28 C22         10.3600    -0.5060     2.0820 ca         1 5MN      -0.036200
     29 C23         12.0240     0.7460     1.2370 cc         1 5MN      -0.105100
     30 C24         10.8960     1.2690     0.7290 cd         1 5MN      -0.198200
     31 C21          9.7820     0.4810     1.2630 ca         1 5MN      -0.109800
     32 C20          8.3970     0.5350     1.1100 ca         1 5MN      -0.074000
     33 H1          -0.3600     0.0320    -1.0210 h1         1 5MN       0.039950
     34 H2          -0.3600    -0.8970     0.4880 h1         1 5MN       0.039950
     35 H3           2.3520    -2.3980     2.1800 hn         1 5MN       0.338500
     36 H4           1.3490    -3.8400     2.6590 ha         1 5MN       0.128000
     37 H5           0.0850    -5.7940     3.4630 ha         1 5MN       0.133000
     38 H6           1.0220    -7.2350     5.2280 ha         1 5MN       0.133000
     39 H7          12.3950    -0.8720     2.5360 hn         1 5MN       0.294700
     40 H8           2.6050    -7.6140     6.8960 hc         1 5MN       0.045700
     41 H9           4.1770    -7.5950     6.0850 hc         1 5MN       0.045700
     42 H10          3.7930    -6.3670     7.2980 hc         1 5MN       0.045700
     43 H11          4.5140    -4.7830     5.4060 ha         1 5MN       0.157000
     44 H12          5.9070    -2.1050     2.4960 ha         1 5MN       0.178000
     45 H13          6.1490     1.6970     0.5250 ha         1 5MN       0.133000
     46 H14          3.6910     1.8150     0.4480 ha         1 5MN       0.137000
     47 H15          1.8910     2.0780     1.6260 h1         1 5MN       0.047200
     48 H16          1.8910     1.1480     3.1340 h1         1 5MN       0.047200
     49 H17         -0.3590     0.2950     2.6230 h1         1 5MN       0.039950
     50 H18         -0.3580     2.0670     2.6220 h1         1 5MN       0.039950
     51 H19          1.8910    -0.8860    -0.5080 h1         1 5MN       0.047200
     52 H20          1.8910     0.8860    -0.5090 h1         1 5MN       0.047200
     53 H22         -2.2820     1.3150    -0.3460 h1         1 5MN       0.032367
     54 H23         -2.2840     2.1390     1.2200 h1         1 5MN       0.032367
     55 H24         -2.3740     0.3730     1.1490 h1         1 5MN       0.032367
     56 H25          7.5590    -2.0870     3.0910 ha         1 5MN       0.150000
     57 H26          9.9830    -2.1870     3.3660 ha         1 5MN       0.127000
     58 H27         13.0230     1.1120     1.0370 h4         1 5MN       0.163000
     59 H28         10.8230     2.1170     0.0590 ha         1 5MN       0.153000
     60 H29          7.9590     1.2010     0.3760 ha         1 5MN       0.134000
@<TRIPOS>BOND
     1    24    23 1   
     2    23     1 1   
     3    23    21 1   
     4     1    22 1   
     5    21    20 1   
     6    22     4 1   
     7    13    11 1   
     8    20     4 1   
     9     4     2 1   
    10    10    11 ar  
    11    10     9 ar  
    12    11    14 ar  
    13     9     8 ar  
    14    14     6 ar  
    15     8     6 ar  
    16     6     5 1   
    17     2    19 ar  
    18     2     3 ar  
    19     7     5 1   
    20     7     3 1   
    21     5    16 2   
    22    19    18 ar  
    23     3    15 ar  
    24    18    17 ar  
    25    15    17 ar  
    26    17    25 1   
    27    25    26 ar  
    28    25    32 ar  
    29    26    27 ar  
    30    32    31 ar  
    31    27    28 ar  
    32    31    28 ar  
    33    31    30 1   
    34    28    12 1   
    35    30    29 2   
    36    12    29 1   
    37     1    33 1   
    38     1    34 1   
    39     7    35 1   
    40     8    36 1   
    41     9    37 1   
    42    10    38 1   
    43    12    39 1   
    44    13    40 1   
    45    13    41 1   
    46    13    42 1   
    47    14    43 1   
    48    15    44 1   
    49    18    45 1   
    50    19    46 1   
    51    20    47 1   
    52    20    48 1   
    53    21    49 1   
    54    21    50 1   
    55    22    51 1   
    56    22    52 1   
    57    24    53 1   
    58    24    54 1   
    59    24    55 1   
    60    26    56 1   
    61    27    57 1   
    62    29    58 1   
    63    30    59 1   
    64    32    60 1   
@<TRIPOS>SUBSTRUCTURE
     1 5MN         1 TEMP              0 ****  ****    0 ROOT
