@<TRIPOS>MOLECULE
molecule
   61    65     1     0     0
SMALL
bcc


@<TRIPOS>ATOM
      1 C4           0.0000     0.0000     0.0000 c3         1 5MO       0.161300
      2 C5           3.4130     0.0720     1.4270 ca         1 5MO       0.035600
      3 C6           4.0380     1.1830     1.9960 ca         1 5MO       0.088600
      4 N1           2.0180     0.0000     1.3860 nh         1 5MO      -0.627000
      5 C7           3.7800     3.4660     2.6180 c          1 5MO       0.674700
      6 C8           3.0160     4.5350     3.2940 ca         1 5MO      -0.146600
      7 N2           3.2670     2.2220     2.5320 ns         1 5MO      -0.457100
      8 C9           1.7620     4.2610     3.8440 ca         1 5MO      -0.110000
      9 C10          1.0530     5.2630     4.4730 ca         1 5MO      -0.134000
     10 C11          1.5820     6.5390     4.5600 ca         1 5MO      -0.104000
     11 C12          2.8240     6.8180     4.0180 ca         1 5MO      -0.092300
     12 C13          3.3930     8.2100     4.1170 c3         1 5MO      -0.047800
     13 C14          3.5460     5.8230     3.3910 ca         1 5MO      -0.066000
     14 C15          5.4200     1.2560     2.0300 ca         1 5MO      -0.136000
     15 O            4.8710     3.7080     2.1400 o          1 5MO      -0.604100
     16 C16          6.1840     0.2190     1.4960 cp         1 5MO      -0.008000
     17 C17          5.5550    -0.8880     0.9290 ca         1 5MO      -0.140000
     18 C18          4.1760    -0.9590     0.8960 ca         1 5MO      -0.139000
     19 C2           1.5310    -1.1820     2.1120 c3         1 5MO       0.168300
     20 C1          -0.0000    -1.1820     2.1120 c3         1 5MO       0.161300
     21 C3           1.5300     0.0000     0.0000 c3         1 5MO       0.168300
     22 N           -0.4880    -1.1810     0.7260 n3         1 5MO      -0.733600
     23 C           -1.9540    -1.2560     0.6830 c3         1 5MO       0.153100
     24 C19          7.6650     0.2950     1.5310 cp         1 5MO      -0.069000
     25 C26          8.2990     1.3980     2.1010 ca         1 5MO      -0.080000
     26 C25          9.6730     1.4650     2.1360 ca         1 5MO      -0.147000
     27 C22         10.4440     0.4340     1.6010 ca         1 5MO       0.127100
     28 O1          11.7980     0.3000     1.5430 os         1 5MO      -0.316900
     29 C23         12.1360    -0.6780     0.5450 c3         1 5MO       0.130400
     30 C24         10.8900    -1.5960     0.5290 c3         1 5MO      -0.065100
     31 C21          9.8060    -0.6600     1.0300 ca         1 5MO      -0.177300
     32 C20          8.4330    -0.7400     0.9980 ca         1 5MO      -0.070000
     33 H1          -0.3600    -0.0310    -1.0210 h1         1 5MO       0.039950
     34 H2          -0.3600     0.8970     0.4880 h1         1 5MO       0.039950
     35 H3           2.3480     2.0350     2.8810 hn         1 5MO       0.340500
     36 H4           1.3460     3.2620     3.7770 ha         1 5MO       0.128000
     37 H5           0.0810     5.0510     4.9000 ha         1 5MO       0.133000
     38 H6           1.0220     7.3220     5.0550 ha         1 5MO       0.133000
     39 H7           2.6300     8.8860     4.4830 hc         1 5MO       0.046367
     40 H8           4.2320     8.2090     4.8020 hc         1 5MO       0.046367
     41 H9           3.7250     8.5350     3.1390 hc         1 5MO       0.046367
     42 H10          4.5180     6.0430     2.9660 ha         1 5MO       0.158000
     43 H11          5.9070     2.1170     2.4720 ha         1 5MO       0.177000
     44 H12          6.1490    -1.6930     0.5140 ha         1 5MO       0.132000
     45 H13          3.6900    -1.8210     0.4550 ha         1 5MO       0.136000
     46 H14          1.8910    -1.1510     3.1330 h1         1 5MO       0.047450
     47 H15          1.8900    -2.0790     1.6230 h1         1 5MO       0.047450
     48 H16         -0.3610    -2.0690     2.6200 h1         1 5MO       0.039950
     49 H17         -0.3600    -0.2960     2.6220 h1         1 5MO       0.039950
     50 H18          1.8900    -0.8860    -0.5090 h1         1 5MO       0.047450
     51 H19          1.8900     0.8860    -0.5080 h1         1 5MO       0.047450
     52 H21         -2.2850    -1.2710    -0.3480 h1         1 5MO       0.032700
     53 H22         -2.3760    -0.3940     1.1860 h1         1 5MO       0.032700
     54 H23         -2.2840    -2.1610     1.1800 h1         1 5MO       0.032700
     55 H24          7.7080     2.2040     2.5190 ha         1 5MO       0.150000
     56 H25         10.1590     2.3250     2.5810 ha         1 5MO       0.141000
     57 H26         12.2550    -0.1980    -0.4180 h1         1 5MO       0.062200
     58 H27         10.6720    -1.9110    -0.4840 hc         1 5MO       0.063700
     59 H28          7.9520    -1.6400     0.6330 ha         1 5MO       0.133000
     60 H20         13.0070    -1.2410     0.8590 h1         1 5MO       0.062200
     61 H29         11.0230    -2.4180     1.2210 hc         1 5MO       0.063700
@<TRIPOS>BOND
     1    23    22 1   
     2    22    20 1   
     3    22     1 1   
     4    20    19 1   
     5     1    21 1   
     6    19     4 1   
     7    21     4 1   
     8    12    11 1   
     9    10    11 ar  
    10    10     9 ar  
    11     4     2 1   
    12    11    13 ar  
    13     9     8 ar  
    14    13     6 ar  
    15     8     6 ar  
    16     6     5 1   
    17     7     5 1   
    18     7     3 1   
    19     2    18 ar  
    20     2     3 ar  
    21     5    15 2   
    22    18    17 ar  
    23     3    14 ar  
    24    17    16 ar  
    25    14    16 ar  
    26    16    24 1   
    27    24    32 ar  
    28    24    25 ar  
    29    32    31 ar  
    30    25    26 ar  
    31    31    27 ar  
    32    31    30 1   
    33    26    27 ar  
    34    27    28 1   
    35    30    29 1   
    36    28    29 1   
    37     1    33 1   
    38     1    34 1   
    39     7    35 1   
    40     8    36 1   
    41     9    37 1   
    42    10    38 1   
    43    12    39 1   
    44    12    40 1   
    45    12    41 1   
    46    13    42 1   
    47    14    43 1   
    48    17    44 1   
    49    18    45 1   
    50    19    46 1   
    51    19    47 1   
    52    20    48 1   
    53    20    49 1   
    54    21    50 1   
    55    21    51 1   
    56    23    52 1   
    57    23    53 1   
    58    23    54 1   
    59    25    55 1   
    60    26    56 1   
    61    29    57 1   
    62    30    58 1   
    63    32    59 1   
    64    29    60 1   
    65    30    61 1   
@<TRIPOS>SUBSTRUCTURE
     1 5MO         1 TEMP              0 ****  ****    0 ROOT
