@<TRIPOS>MOLECULE
5MP
   13    13     1     0     0
SMALL
bcc


@<TRIPOS>ATOM
      1 C1         -0.0220   -0.0010   -0.0390 cc        1 5MP     -0.148300
      2 C2          1.4120   -0.1140   -0.0540 cc        1 5MP     -0.193000
      3 C3         -0.4110    0.1070    1.3070 cd        1 5MP     -0.167300
      4 C4         -0.9030    0.0000   -1.2060 c3        1 5MP     -0.017800
      5 C5          1.8450   -0.0710    1.2770 cd        1 5MP     -0.167300
      6 N6          0.7310    0.0630    2.1000 na        1 5MP     -0.181100
      7 HC2         2.0360   -0.2130   -0.9350 ha        1 5MP      0.150000
      8 HC3        -1.4050    0.2100    1.7400 h4        1 5MP      0.163000
      9 HC41       -0.8030   -0.9600   -1.7740 hc        1 5MP      0.036700
     10 HC42       -1.9720    0.1200   -0.9030 hc        1 5MP      0.036700
     11 HC43       -0.6360    0.8400   -1.8970 hc        1 5MP      0.036700
     12 HC5         2.8530   -0.1270    1.6880 h4        1 5MP      0.162000
     13 HN6         0.7470    0.1180    3.0830 hn        1 5MP      0.290700
@<TRIPOS>BOND
     1    1    2 1   
     2    1    3 2   
     3    1    4 1   
     4    2    5 2   
     5    2    7 1   
     6    3    6 1   
     7    3    8 1   
     8    4    9 1   
     9    4   10 1   
    10    4   11 1   
    11    5    6 1   
    12    5   12 1   
    13    6   13 1   
@<TRIPOS>SUBSTRUCTURE
     1 5MP         1 TEMP              0 ****  ****    0 ROOT
