@<TRIPOS>MOLECULE
molecule
   13    13     1     0     0
SMALL
bcc


@<TRIPOS>ATOM
      1 C1           0.0000     0.0000     0.0000 cc         1 5MP      -0.163300
      2 C2           1.4080     0.0000     0.0000 cc         1 5MP      -0.201000
      3 C3          -0.4040    -0.0090     1.2860 cd         1 5MP      -0.164300
      4 C4          -0.8910     0.0020    -1.2160 c3         1 5MP      -0.012800
      5 C5           1.8110     0.0000     1.2870 cd         1 5MP      -0.165300
      6 N6           0.7030    -0.0090     2.0810 na         1 5MP      -0.163100
      7 HC2          2.0500     0.0060    -0.8730 ha         1 5MP       0.147000
      8 HC3         -1.4320    -0.0140     1.6290 h4         1 5MP       0.163000
      9 HC41        -0.3210     0.3220    -2.0800 hc         1 5MP       0.035700
     10 HC42        -1.2740    -0.9970    -1.3840 hc         1 5MP       0.035700
     11 HC43        -1.7180     0.6840    -1.0560 hc         1 5MP       0.035700
     12 HC5          2.8390     0.0010     1.6310 h4         1 5MP       0.162000
     13 HN6          0.7030    -0.0130     3.0820 hn         1 5MP       0.291700
@<TRIPOS>BOND
     1     1     2 1   
     2     1     3 2   
     3     1     4 1   
     4     2     5 2   
     5     2     7 1   
     6     3     6 1   
     7     3     8 1   
     8     4     9 1   
     9     4    10 1   
    10     4    11 1   
    11     5     6 1   
    12     5    12 1   
    13     6    13 1   
@<TRIPOS>SUBSTRUCTURE
     1 5MP         1 TEMP              0 ****  ****    0 ROOT
