@<TRIPOS>MOLECULE
molecule
   61    65     1     0     0
SMALL
bcc


@<TRIPOS>ATOM
      1 C4           0.0000     0.0000     0.0000 c3         1 5MQ       0.161300
      2 C5           3.4130    -0.0730     1.4270 ca         1 5MQ       0.046600
      3 C6           4.0370    -1.1810     2.0000 ca         1 5MQ       0.075600
      4 N1           2.0170     0.0000     1.3860 nh         1 5MQ      -0.626000
      5 C7           3.6990    -3.4960     2.4440 c          1 5MQ       0.673700
      6 C8           2.8410    -4.6020     2.9180 ca         1 5MQ      -0.144600
      7 N2           3.2670    -2.2220     2.5340 ns         1 5MQ      -0.461100
      8 C9           1.5830    -4.3320     3.4600 ca         1 5MQ      -0.109000
      9 C10          0.7890    -5.3700     3.9000 ca         1 5MQ      -0.135000
     10 C11          1.2350    -6.6760     3.8070 ca         1 5MQ      -0.105000
     11 C12          2.4810    -6.9500     3.2720 ca         1 5MQ      -0.093300
     12 C13          2.9590    -8.3770     3.1740 c3         1 5MQ      -0.047800
     13 C14          3.2840    -5.9230     2.8220 ca         1 5MQ      -0.067000
     14 C15          5.4190    -1.2520     2.0390 ca         1 5MQ      -0.119000
     15 O            4.7930    -3.7340     1.9730 o          1 5MQ      -0.601100
     16 C16          6.1830    -0.2160     1.5060 cp         1 5MQ      -0.022000
     17 C19          7.6640    -0.2880     1.5470 cp         1 5MQ      -0.052000
     18 C26          8.3140    -0.5860     2.7400 ca         1 5MQ      -0.083000
     19 C25          9.6910    -0.6550     2.7820 ca         1 5MQ      -0.160000
     20 C24         10.4300    -0.4290     1.6320 ca         1 5MQ      -0.078000
     21 C23          9.7930    -0.1370     0.4450 ca         1 5MQ      -0.173300
     22 C22         10.3200     0.1350    -0.9510 c3         1 5MQ      -0.066100
     23 C21          9.0450    -0.0300    -1.8110 c3         1 5MQ       0.131400
     24 O1           7.9910     0.2580    -0.8750 os         1 5MQ      -0.311900
     25 C20          8.4100    -0.0610     0.3800 ca         1 5MQ       0.137100
     26 C17          5.5540     0.8900     0.9360 ca         1 5MQ      -0.114000
     27 C18          4.1770     0.9610     0.9020 ca         1 5MQ      -0.148000
     28 C2           1.5300     1.1800     2.1140 c3         1 5MQ       0.168800
     29 C1          -0.0000     1.1800     2.1140 c3         1 5MQ       0.161300
     30 C3           1.5300     0.0000     0.0000 c3         1 5MQ       0.168800
     31 N           -0.4880     1.1800     0.7270 n3         1 5MQ      -0.733600
     32 C           -1.9540     1.2560     0.6850 c3         1 5MQ       0.153100
     33 H1          -0.3600     0.0320    -1.0210 h1         1 5MQ       0.040200
     34 H2          -0.3600    -0.8980     0.4880 h1         1 5MQ       0.040200
     35 H3           2.4200    -2.0150     3.0260 hn         1 5MQ       0.336500
     36 H4           1.2320    -3.3100     3.5340 ha         1 5MQ       0.128000
     37 H5          -0.1880    -5.1610     4.3210 ha         1 5MQ       0.132000
     38 H6           0.6060    -7.4870     4.1540 ha         1 5MQ       0.133000
     39 H7           2.9050    -8.7060     2.1430 hc         1 5MQ       0.046033
     40 H8           3.9840    -8.4380     3.5190 hc         1 5MQ       0.046033
     41 H9           2.3320    -9.0110     3.7890 hc         1 5MQ       0.046033
     42 H10          4.2590    -6.1390     2.4030 ha         1 5MQ       0.158000
     43 H11          5.9060    -2.1120     2.4830 ha         1 5MQ       0.172000
     44 H12          7.7370    -0.7630     3.6390 ha         1 5MQ       0.140000
     45 H13         10.1950    -0.8870     3.7120 ha         1 5MQ       0.134000
     46 H14         11.5110    -0.4830     1.6660 ha         1 5MQ       0.129000
     47 H15         11.0690    -0.5970    -1.2290 hc         1 5MQ       0.062200
     48 H16          9.0400     0.7000    -2.6110 h1         1 5MQ       0.063200
     49 H17          6.1480     1.6970     0.5230 ha         1 5MQ       0.141000
     50 H18          3.6900     1.8210     0.4570 ha         1 5MQ       0.137000
     51 H19          1.8900     1.1470     3.1350 h1         1 5MQ       0.047450
     52 H20          1.8900     2.0780     1.6270 h1         1 5MQ       0.047450
     53 H21         -0.3600     2.0660     2.6220 h1         1 5MQ       0.040200
     54 H22         -0.3600     0.2930     2.6220 h1         1 5MQ       0.040200
     55 H23          1.8900     0.8860    -0.5090 h1         1 5MQ       0.047450
     56 H24          1.8900    -0.8860    -0.5080 h1         1 5MQ       0.047450
     57 H26         -2.3750     0.3910     1.1830 h1         1 5MQ       0.032033
     58 H27         -2.2850     1.2750    -0.3470 h1         1 5MQ       0.032033
     59 H28         -2.2840     2.1580     1.1860 h1         1 5MQ       0.032033
     60 H29         10.7070     1.1440    -1.0260 hc         1 5MQ       0.062200
     61 H30          8.9630    -1.0530    -2.1590 h1         1 5MQ       0.063200
@<TRIPOS>BOND
     1    22    21 1   
     2    22    23 1   
     3    20    21 ar  
     4    20    19 ar  
     5    21    25 ar  
     6    19    18 ar  
     7    23    24 1   
     8    25    24 1   
     9    25    17 ar  
    10    18    17 ar  
    11    17    16 1   
    12    16    14 ar  
    13    16    26 ar  
    14    14     3 ar  
    15    26    27 ar  
    16    15     5 2   
    17     3     7 1   
    18     3     2 ar  
    19     5     7 1   
    20     5     6 1   
    21    27     2 ar  
    22     6     8 ar  
    23     6    13 ar  
    24     2     4 1   
    25     8     9 ar  
    26    13    11 ar  
    27     9    10 ar  
    28    11    10 ar  
    29    11    12 1   
    30     4    28 1   
    31     4    30 1   
    32    28    29 1   
    33    30     1 1   
    34    29    31 1   
    35     1    31 1   
    36    31    32 1   
    37     1    33 1   
    38     1    34 1   
    39     7    35 1   
    40     8    36 1   
    41     9    37 1   
    42    10    38 1   
    43    12    39 1   
    44    12    40 1   
    45    12    41 1   
    46    13    42 1   
    47    14    43 1   
    48    18    44 1   
    49    19    45 1   
    50    20    46 1   
    51    22    47 1   
    52    23    48 1   
    53    26    49 1   
    54    27    50 1   
    55    28    51 1   
    56    28    52 1   
    57    29    53 1   
    58    29    54 1   
    59    30    55 1   
    60    30    56 1   
    61    32    57 1   
    62    32    58 1   
    63    32    59 1   
    64    22    60 1   
    65    23    61 1   
@<TRIPOS>SUBSTRUCTURE
     1 5MQ         1 TEMP              0 ****  ****    0 ROOT
