@<TRIPOS>MOLECULE
5MQ
   61    65     1     0     0
SMALL
bcc


@<TRIPOS>ATOM
      1 C4           0.0000     0.0000     0.0000 c3         1 5MQ       0.153800
      2 C5           3.4130    -0.0730     1.4270 ca         1 5MQ      -0.027400
      3 C6           4.0370    -1.1810     2.0000 ca         1 5MQ      -0.067400
      4 N1           2.0170     0.0000     1.3860 nh         1 5MQ      -0.411000
      5 C7           3.6990    -3.4960     2.4440 c          1 5MQ       0.583700
      6 C8           2.8410    -4.6020     2.9180 ca         1 5MQ      -0.156600
      7 N2           3.2670    -2.2220     2.5340 ns         1 5MQ      -0.021100
      8 C9           1.5830    -4.3320     3.4600 ca         1 5MQ      -0.091000
      9 C10          0.7890    -5.3700     3.9000 ca         1 5MQ      -0.106000
     10 C11          1.2350    -6.6760     3.8070 ca         1 5MQ      -0.079000
     11 C12          2.4810    -6.9500     3.2720 ca         1 5MQ      -0.102300
     12 C13          2.9590    -8.3770     3.1740 c3         1 5MQ       0.065200
     13 C14          3.2840    -5.9230     2.8220 ca         1 5MQ      -0.035000
     14 C15          5.4190    -1.2520     2.0390 ca         1 5MQ      -0.100000
     15 O            4.7930    -3.7340     1.9730 o          1 5MQ      -0.644100
     16 C16          6.1830    -0.2160     1.5060 cp         1 5MQ      -0.010000
     17 C19          7.6640    -0.2880     1.5470 cp         1 5MQ      -0.053000
     18 C26          8.3140    -0.5860     2.7400 ca         1 5MQ      -0.058000
     19 C25          9.6910    -0.6550     2.7820 ca         1 5MQ      -0.137000
     20 C24         10.4300    -0.4290     1.6320 ca         1 5MQ      -0.043000
     21 C23          9.7930    -0.1370     0.4450 ca         1 5MQ      -0.189300
     22 C22         10.3200     0.1350    -0.9510 c3         1 5MQ       0.010900
     23 C21          9.0450    -0.0300    -1.8110 c3         1 5MQ       0.207400
     24 O1           7.9910     0.2580    -0.8750 os         1 5MQ      -0.295900
     25 C20          8.4100    -0.0610     0.3800 ca         1 5MQ       0.150100
     26 C17          5.5540     0.8900     0.9360 ca         1 5MQ      -0.089000
     27 C18          4.1770     0.9610     0.9020 ca         1 5MQ      -0.119000
     28 C2           1.5300     1.1800     2.1140 c3         1 5MQ       0.146800
     29 C1          -0.0000     1.1800     2.1140 c3         1 5MQ       0.153800
     30 C3           1.5300     0.0000     0.0000 c3         1 5MQ       0.146800
     31 N           -0.4880     1.1800     0.7270 n3         1 5MQ      -0.548600
     32 C           -1.9540     1.2560     0.6850 c3         1 5MQ       0.189100
     33 H1          -0.3600     0.0320    -1.0210 h1         1 5MQ       0.012950
     34 H2          -0.3600    -0.8980     0.4880 h1         1 5MQ       0.012950
     35 H3           2.4200    -2.0150     3.0260 hn         1 5MQ       0.182500
     36 H4           1.2320    -3.3100     3.5340 ha         1 5MQ       0.104000
     37 H5          -0.1880    -5.1610     4.3210 ha         1 5MQ       0.104000
     38 H6           0.6060    -7.4870     4.1540 ha         1 5MQ       0.106000
     39 H7           2.9050    -8.7060     2.1430 hc         1 5MQ       0.009033
     40 H8           3.9840    -8.4380     3.5190 hc         1 5MQ       0.009033
     41 H9           2.3320    -9.0110     3.7890 hc         1 5MQ       0.009033
     42 H10          4.2590    -6.1390     2.4030 ha         1 5MQ       0.130000
     43 H11          5.9060    -2.1120     2.4830 ha         1 5MQ       0.154000
     44 H12          7.7370    -0.7630     3.6390 ha         1 5MQ       0.110000
     45 H13         10.1950    -0.8870     3.7120 ha         1 5MQ       0.106000
     46 H14         11.5110    -0.4830     1.6660 ha         1 5MQ       0.100000
     47 H15         11.0690    -0.5970    -1.2290 hc         1 5MQ       0.027200
     48 H16          9.0400     0.7000    -2.6110 h1         1 5MQ       0.018700
     49 H17          6.1480     1.6970     0.5230 ha         1 5MQ       0.114000
     50 H18          3.6900     1.8210     0.4570 ha         1 5MQ       0.114000
     51 H19          1.8900     1.1470     3.1350 h1         1 5MQ       0.020950
     52 H20          1.8900     2.0780     1.6270 h1         1 5MQ       0.020950
     53 H21         -0.3600     2.0660     2.6220 h1         1 5MQ       0.012950
     54 H22         -0.3600     0.2930     2.6220 h1         1 5MQ       0.012950
     55 H23          1.8900     0.8860    -0.5090 h1         1 5MQ       0.020950
     56 H24          1.8900    -0.8860    -0.5080 h1         1 5MQ       0.020950
     57 H26         -2.3750     0.3910     1.1830 h1         1 5MQ       0.000033
     58 H27         -2.2850     1.2750    -0.3470 h1         1 5MQ       0.000033
     59 H28         -2.2840     2.1580     1.1860 h1         1 5MQ       0.000033
     60 H29         10.7070     1.1440    -1.0260 hc         1 5MQ       0.027200
     61 H30          8.9630    -1.0530    -2.1590 h1         1 5MQ       0.018700
@<TRIPOS>BOND
     1     1    30 1   
     2     1    31 1   
     3     1    33 1   
     4     1    34 1   
     5     2     3 ar  
     6     2     4 1   
     7     2    27 ar  
     8     3     7 1   
     9     3    14 ar  
    10     4    28 1   
    11     4    30 1   
    12     5     6 1   
    13     5     7 1   
    14     5    15 2   
    15     6     8 ar  
    16     6    13 ar  
    17     7    35 1   
    18     8     9 ar  
    19     8    36 1   
    20     9    10 ar  
    21     9    37 1   
    22    10    11 ar  
    23    10    38 1   
    24    11    12 1   
    25    11    13 ar  
    26    12    39 1   
    27    12    40 1   
    28    12    41 1   
    29    13    42 1   
    30    14    16 ar  
    31    14    43 1   
    32    16    17 1   
    33    16    26 ar  
    34    17    18 ar  
    35    17    25 ar  
    36    18    19 ar  
    37    18    44 1   
    38    19    20 ar  
    39    19    45 1   
    40    20    21 ar  
    41    20    46 1   
    42    21    22 1   
    43    21    25 ar  
    44    22    23 1   
    45    22    47 1   
    46    22    60 1   
    47    23    24 1   
    48    23    48 1   
    49    23    61 1   
    50    24    25 1   
    51    26    27 ar  
    52    26    49 1   
    53    27    50 1   
    54    28    29 1   
    55    28    51 1   
    56    28    52 1   
    57    29    31 1   
    58    29    53 1   
    59    29    54 1   
    60    30    55 1   
    61    30    56 1   
    62    31    32 1   
    63    32    57 1   
    64    32    58 1   
    65    32    59 1   
@<TRIPOS>SUBSTRUCTURE
     1 5MQ         1 TEMP              0 ****  ****    0 ROOT
