@<TRIPOS>MOLECULE
5MR
   70    74     1     0     0
SMALL
bcc


@<TRIPOS>ATOM
      1 CD2        -0.7530    0.9300    0.4270 ca        1 5MR     -0.084800
      2 CE3        -0.0340    2.1230    0.3360 ca        1 5MR     -0.107000
      3 CZ3         0.1460    2.8850    1.4800 ca        1 5MR     -0.138000
      4 CH2        -0.3810    2.4810    2.7200 ca        1 5MR     -0.112000
      5 CZ2        -1.1020    1.3040    2.8540 ca        1 5MR     -0.132000
      6 CE2        -1.2910    0.5220    1.7050 ca        1 5MR     -0.057200
      7 NE1        -1.9510   -0.7000    1.5250 na        1 5MR     -0.179400
      8 CD1        -1.8700   -1.0580    0.1850 cc        1 5MR     -0.047100
      9 CG         -1.1400   -0.0940   -0.5220 cd        1 5MR     -0.224400
     10 CB         -0.8560   -0.0820   -1.9580 c3        1 5MR      0.001800
     11 CA          0.2940   -1.0560   -2.2980 c3        1 5MR      0.138500
     12 C           0.5210   -0.9700   -3.8180 c         1 5MR      0.536100
     13 O          -0.2710   -0.6180   -4.6770 o         1 5MR     -0.434100
     14 NAA         1.8630   -1.4330   -4.3230 n4        1 5MR     -0.747400
     15 N           1.5220   -0.8450   -1.5790 n3        1 5MR     -0.952800
     16 CBD         1.4260   -4.3970   -1.7020 c         1 5MR      0.758600
     17 OAC         2.1900   -3.7120   -2.3790 o         1 5MR     -0.621500
     18 CBL         0.8900   -5.7940   -1.9570 c3        1 5MR     -0.123700
     19 CAX         0.0370   -6.1610   -0.7520 c3        1 5MR     -0.447600
     20 PBN        -0.1310   -4.8360    0.2420 py        1 5MR      1.584400
     21 OAE        -1.3990   -4.1310    0.1280 o         1 5MR     -0.860300
     22 OAD         0.9880   -3.8600   -0.5460 os        1 5MR     -0.557500
     23 CBG         0.4490   -5.1760    1.6820 ca        1 5MR     -0.537500
     24 CAP         1.7710   -5.5830    1.8790 ca        1 5MR     -0.023500
     25 CAJ         2.2470   -5.8630    3.1550 ca        1 5MR     -0.142000
     26 CAG         1.3930   -5.7370    4.2550 ca        1 5MR     -0.040000
     27 CAK         0.0700   -5.3260    4.0730 ca        1 5MR     -0.142000
     28 CAQ        -0.3950   -5.0450    2.7920 ca        1 5MR     -0.023500
     29 CAV         0.0970   -5.8770   -3.2590 c3        1 5MR     -0.109700
     30 CBF         0.9080   -5.5980   -4.4510 cc        1 5MR      0.263000
     31 CAU         1.5040   -6.3530   -5.4360 cd        1 5MR     -0.320600
     32 OBB         1.1470   -4.2300   -4.7560 os        1 5MR     -0.178100
     33 NAY         1.8650   -4.1300   -5.8620 nc        1 5MR     -0.427300
     34 CBH         2.1190   -5.3670   -6.3400 cd        1 5MR      0.440800
     35 CBE         2.8690   -5.6940   -7.5410 ca        1 5MR     -0.168500
     36 CAN         2.6070   -6.8990   -8.2120 ca        1 5MR     -0.093000
     37 CAH         3.3200   -7.2250   -9.3630 ca        1 5MR     -0.129000
     38 CAF         4.2980   -6.3580   -9.8520 ca        1 5MR     -0.094000
     39 CAI         4.5620   -5.1600   -9.1870 ca        1 5MR     -0.129000
     40 CAO         3.8500   -4.8250   -8.0370 ca        1 5MR     -0.093000
     41 HE3         0.3710    2.4530   -0.6300 ha        1 5MR      0.127000
     42 HZ3         0.7070    3.8310    1.4240 ha        1 5MR      0.137000
     43 HH2        -0.2190    3.1190    3.6030 ha        1 5MR      0.140000
     44 HZ2        -1.5170    0.9980    3.8240 ha        1 5MR      0.139000
     45 HNE1       -2.4720   -1.1740    2.2150 hn        1 5MR      0.306700
     46 HD1        -2.3040   -2.0050   -0.1650 h4        1 5MR      0.208000
     47 HB1        -1.7590   -0.3940   -2.5480 hc        1 5MR      0.072200
     48 HB2        -0.5770    0.9560   -2.2840 hc        1 5MR      0.072200
     49 HA         -0.0850   -2.1180   -2.1450 h1        1 5MR      0.090700
     50 HAA1        1.8630   -1.5130   -5.3450 hn        1 5MR      0.474467
     51 HAA2        2.0810   -2.3520   -3.9100 hn        1 5MR      0.474467
     52 HN          1.4470   -0.0770   -0.9400 hn        1 5MR      0.404800
     53 HBL         1.7790   -6.4840   -2.0490 hc        1 5MR      0.111700
     54 HAX1        0.4940   -7.0470   -0.2390 hc        1 5MR      0.131200
     55 HAX2       -0.9700   -6.5260   -1.0970 hc        1 5MR      0.131200
     56 HAP         2.4340   -5.6670    1.0040 ha        1 5MR      0.148000
     57 HAJ         3.2910   -6.1800    3.3020 ha        1 5MR      0.158000
     58 HAG         1.7660   -5.9590    5.2690 ha        1 5MR      0.157000
     59 HAK        -0.6010   -5.2240    4.9410 ha        1 5MR      0.158000
     60 HAQ        -1.4330   -4.7060    2.6230 ha        1 5MR      0.148000
     61 HAV1       -0.3200   -6.9180   -3.3490 hc        1 5MR      0.091200
     62 HAV2       -0.7730   -5.1630   -3.2290 hc        1 5MR      0.091200
     63 HAU         1.5400   -7.4320   -5.5550 ha        1 5MR      0.191000
     64 HAN         1.8300   -7.5820   -7.8360 ha        1 5MR      0.135500
     65 HAH         3.1080   -8.1690   -9.8890 ha        1 5MR      0.147000
     66 HAF         4.8610   -6.6190  -10.7610 ha        1 5MR      0.148000
     67 HAI         5.3330   -4.4750   -9.5720 ha        1 5MR      0.147000
     68 HAO         4.0660   -3.8780   -7.5200 ha        1 5MR      0.135500
     69 HAA3        2.5830   -0.7700   -4.0250 hn        1 5MR      0.474467
     70 H2          1.8110   -1.6790   -1.1010 hn        1 5MR      0.404800
@<TRIPOS>BOND
     1    1    2 ar  
     2    1    6 ar  
     3    1    9 1   
     4    2    3 ar  
     5    2   41 1   
     6    3    4 ar  
     7    3   42 1   
     8    4    5 ar  
     9    4   43 1   
    10    5    6 ar  
    11    5   44 1   
    12    6    7 1   
    13    7    8 1   
    14    7   45 1   
    15    8    9 2   
    16    8   46 1   
    17    9   10 1   
    18   10   11 1   
    19   10   47 1   
    20   10   48 1   
    21   11   12 1   
    22   11   15 1   
    23   11   49 1   
    24   12   13 2   
    25   12   14 1   
    26   14   50 1   
    27   14   51 1   
    28   14   69 1   
    29   15   52 1   
    30   15   70 1   
    31   16   17 2   
    32   16   18 1   
    33   16   22 1   
    34   18   19 1   
    35   18   29 1   
    36   18   53 1   
    37   19   20 1   
    38   19   54 1   
    39   19   55 1   
    40   20   21 2   
    41   20   22 1   
    42   20   23 1   
    43   23   24 ar  
    44   23   28 ar  
    45   24   25 ar  
    46   24   56 1   
    47   25   26 ar  
    48   25   57 1   
    49   26   27 ar  
    50   26   58 1   
    51   27   28 ar  
    52   27   59 1   
    53   28   60 1   
    54   29   30 1   
    55   29   61 1   
    56   29   62 1   
    57   30   31 2   
    58   30   32 1   
    59   31   34 1   
    60   31   63 1   
    61   32   33 1   
    62   33   34 2   
    63   34   35 1   
    64   35   36 ar  
    65   35   40 ar  
    66   36   37 ar  
    67   36   64 1   
    68   37   38 ar  
    69   37   65 1   
    70   38   39 ar  
    71   38   66 1   
    72   39   40 ar  
    73   39   67 1   
    74   40   68 1   
@<TRIPOS>SUBSTRUCTURE
     1 5MR         1 TEMP              0 ****  ****    0 ROOT
