@<TRIPOS>MOLECULE
molecule
   43    45     1     0     0
SMALL
bcc


@<TRIPOS>ATOM
      1 C            0.0000     0.0000     0.0000 ca         1 5MS      -0.127300
      2 C1           1.3810     0.0000     0.0000 ca         1 5MS      -0.093000
      3 C2           2.0750     0.0000     1.1940 ca         1 5MS      -0.136000
      4 C3           1.3860     0.0000     2.4000 ca         1 5MS       0.177600
      5 C4          -0.0020     0.0010     2.4050 ca         1 5MS      -0.219000
      6 C5          -0.6960     0.0010     1.2030 ca         1 5MS       0.157600
      7 N            2.0900    -0.0000     3.6080 nu         1 5MS      -0.766300
      8 C6           3.2800    -0.7030     3.7170 ca         1 5MS       0.725200
      9 C7           4.0520    -0.6130     4.8750 ca         1 5MS      -0.432600
     10 C8           5.2380    -1.3390     4.9330 cp         1 5MS       0.555800
     11 N9           5.5900    -2.0880     3.8870 nb         1 5MS      -0.779000
     12 C10          4.8320    -2.1460     2.8130 ca         1 5MS       0.722900
     13 N11          3.7010    -1.4780     2.7200 nb         1 5MS      -0.803000
     14 C12          6.0990    -1.2800     6.1400 cp         1 5MS      -0.159500
     15 C13          7.2850    -2.0090     6.1900 ca         1 5MS      -0.092000
     16 C14          8.0820    -1.9500     7.3150 ca         1 5MS      -0.138000
     17 C15          7.7040    -1.1680     8.3930 ca         1 5MS      -0.111000
     18 C16          6.5280    -0.4420     8.3490 ca         1 5MS      -0.138000
     19 C17          5.7270    -0.4890     7.2260 ca         1 5MS      -0.092000
     20 C18         -0.7530     0.0050    -1.3050 c3         1 5MS      -0.040800
     21 N19         -2.0930     0.0010     1.2030 nu         1 5MS      -0.763500
     22 S           -2.9200     0.8330     2.3710 s6         1 5MS       1.326900
     23 C20         -2.3610     2.5490     2.1870 c3         1 5MS      -0.242300
     24 O           -4.2840     0.7100     1.9890 o          1 5MS      -0.627800
     25 O21         -2.4510     0.2830     3.5940 o          1 5MS      -0.627800
     26 H1           1.9210    -0.0000    -0.9390 ha         1 5MS       0.137000
     27 H2           3.1590    -0.0000     1.1890 ha         1 5MS       0.157000
     28 H4          -0.5420     0.0020     3.3440 ha         1 5MS       0.181000
     29 HN           1.7410     0.5160     4.3910 hn         1 5MS       0.460800
     30 H7           3.7370     0.0050     5.7070 ha         1 5MS       0.146000
     31 H10          5.1460    -2.7660     1.9810 h5         1 5MS       0.060100
     32 H13          7.5810    -2.6220     5.3470 ha         1 5MS       0.144000
     33 H14          9.0040    -2.5170     7.3550 ha         1 5MS       0.133000
     34 H15          8.3320    -1.1270     9.2750 ha         1 5MS       0.131000
     35 H16          6.2390     0.1700     9.1950 ha         1 5MS       0.133000
     36 H17          4.8050     0.0800     7.1920 ha         1 5MS       0.144000
     37 H18         -0.0490     0.0310    -2.1280 hc         1 5MS       0.041700
     38 H18A        -1.3920     0.8790    -1.3500 hc         1 5MS       0.041700
     39 H18B        -1.3590    -0.8900    -1.3760 hc         1 5MS       0.041700
     40 HN19        -2.5930    -0.5410     0.5270 hn         1 5MS       0.469800
     41 H20         -1.4070     2.6720     2.6840 h1         1 5MS       0.100700
     42 H20A        -3.0890     3.2150     2.6330 h1         1 5MS       0.100700
     43 H20B        -2.2540     2.7830     1.1350 h1         1 5MS       0.100700
@<TRIPOS>BOND
     1     1     2 ar  
     2     1     6 ar  
     3     1    20 1   
     4     2     3 ar  
     5     3     4 ar  
     6     4     5 ar  
     7     4     7 1   
     8     5     6 ar  
     9     6    21 1   
    10     7     8 1   
    11     8     9 ar  
    12     8    13 ar  
    13     9    10 ar  
    14    10    11 ar  
    15    10    14 1   
    16    11    12 ar  
    17    12    13 ar  
    18    14    15 ar  
    19    14    19 ar  
    20    15    16 ar  
    21    16    17 ar  
    22    17    18 ar  
    23    18    19 ar  
    24    21    22 1   
    25    22    23 1   
    26    22    24 2   
    27    22    25 2   
    28     2    26 1   
    29     3    27 1   
    30     5    28 1   
    31     7    29 1   
    32     9    30 1   
    33    12    31 1   
    34    15    32 1   
    35    16    33 1   
    36    17    34 1   
    37    18    35 1   
    38    19    36 1   
    39    20    37 1   
    40    20    38 1   
    41    20    39 1   
    42    21    40 1   
    43    23    41 1   
    44    23    42 1   
    45    23    43 1   
@<TRIPOS>SUBSTRUCTURE
     1 5MS         1 TEMP              0 ****  ****    0 ROOT
