@<TRIPOS>MOLECULE
molecule
   50    53     1     0     0
SMALL
bcc


@<TRIPOS>ATOM
      1 C20          0.0000     0.0000     0.0000 c3         1 5MT      -0.270300
      2 S1           1.8140     0.0000     0.0000 sy         1 5MT       1.224300
      3 O1           2.3130     0.0000     1.3300 o          1 5MT      -0.609300
      4 O2           2.3120    -0.9110    -0.9690 o          1 5MT      -0.609300
      5 C18          2.2540     1.5870    -0.6290 ca         1 5MT      -0.296500
      6 C19          2.4200     1.7690    -1.9880 ca         1 5MT      -0.023000
      7 C17          2.4260     2.6490     0.2390 ca         1 5MT      -0.017000
      8 C16          2.7710     3.8960    -0.2510 ca         1 5MT      -0.145000
      9 C15          2.9430     4.0830    -1.6090 ca         1 5MT      -0.079000
     10 C14          2.7660     3.0190    -2.4820 ca         1 5MT      -0.025200
     11 N5           2.9360     3.2060    -3.8600 na         1 5MT      -0.080400
     12 C9           3.9060     2.6220    -4.6540 ca         1 5MT      -0.066200
     13 C10          4.9510     1.7430    -4.4090 ca         1 5MT      -0.164000
     14 C11          5.7640     1.3390    -5.4490 ca         1 5MT       0.170900
     15 F1           6.7820     0.4820    -5.2110 f          1 5MT      -0.133900
     16 C12          5.5440     1.8070    -6.7390 ca         1 5MT      -0.172000
     17 C13          4.5130     2.6800    -6.9970 ca         1 5MT      -0.059000
     18 C8           3.6800     3.0980    -5.9570 ca         1 5MT       0.066400
     19 N6           2.6060     3.9300    -5.8940 nc         1 5MT      -0.589100
     20 C7           2.1710     3.9930    -4.6700 cd         1 5MT       0.424800
     21 C6           0.9910     4.8120    -4.2140 c3         1 5MT       0.193200
     22 C21         -0.3040     4.1310    -4.6600 c3         1 5MT      -0.119100
     23 N4           1.0680     6.1500    -4.8040 nu         1 5MT      -0.823900
     24 C2           0.4490     7.2150    -4.1810 ca         1 5MT       0.760200
     25 N2          -0.2150     7.0410    -3.0420 nb         1 5MT      -0.842000
     26 C1          -0.8090     8.0510    -2.4400 ca         1 5MT       0.765900
     27 N1          -0.7790     9.2760    -2.9240 nb         1 5MT      -0.837000
     28 C4          -0.1400     9.5520    -4.0570 ca         1 5MT       0.791200
     29 N3          -0.1160    10.8390    -4.5550 nv         1 5MT      -0.988500
     30 C3           0.5140     8.5080    -4.7370 ca         1 5MT      -0.381600
     31 C5           1.2220     8.7510    -5.9590 cg         1 5MT       0.254800
     32 N7           1.7650     8.9470    -6.9370 n1         1 5MT      -0.372800
     33 H1          -0.5370    -0.1790    -0.9240 h1         1 5MT       0.103367
     34 H2          -0.5120    -0.4720     0.8300 h1         1 5MT       0.103367
     35 H3          -0.4610     0.9400     0.2760 h1         1 5MT       0.103367
     36 H4           2.0830     0.8620    -2.4750 ha         1 5MT       0.165000
     37 H5           2.1520     2.7090     1.2850 ha         1 5MT       0.155000
     38 H6           3.0350     4.7470     0.3650 ha         1 5MT       0.149000
     39 H7           3.4140     4.9480    -2.0590 ha         1 5MT       0.157000
     40 H8           5.1260     1.5370    -3.3600 ha         1 5MT       0.153000
     41 H9           6.1320     1.6390    -7.6330 ha         1 5MT       0.154000
     42 H10          4.3150     3.2560    -7.8930 ha         1 5MT       0.157000
     43 H11          1.0030     4.8920    -3.1340 h1         1 5MT       0.095700
     44 H12         -0.1300     3.1330    -4.2760 hc         1 5MT       0.055367
     45 H13         -1.1590     4.4690    -4.0870 hc         1 5MT       0.055367
     46 H14         -0.3820     4.1240    -5.7410 hc         1 5MT       0.055367
     47 H15          0.9310     6.0460    -5.7900 hn         1 5MT       0.441800
     48 H16         -1.5070     8.0050    -1.6140 h5         1 5MT       0.066100
     49 H17         -0.1210    11.6230    -3.9330 hn         1 5MT       0.442300
     50 H18          0.1400    11.0970    -5.4880 hn         1 5MT       0.442300
@<TRIPOS>BOND
     1    15    14 1
     2    16    14 ar
     3    16    17 ar
     4    14    13 ar
     5    17    18 ar
     6    13    12 ar
     7    18    12 ar
     8    18    19 1
     9    12    11 1
    10     3     2 2
    11    19    20 2
    12    11    20 1
    13    11    10 1
    14     1     2 1
    15     6    10 ar
    16     6     5 ar
    17    20    21 1
    18     2     5 1
    19     2     4 2
    20    10     9 ar
    21     5     7 ar
    22     9     8 ar
    23    22    21 1
    24     7     8 ar
    25    21    23 1
    26    23    24 1
    27    25    24 ar
    28    25    26 ar
    29    24    30 ar
    30    26    27 ar
    31    30    31 1
    32    30    28 ar
    33    31    32 3
    34    27    28 ar
    35    28    29 1
    36     1    33 1
    37     1    34 1
    38     1    35 1
    39     6    36 1
    40     7    37 1
    41     8    38 1
    42     9    39 1
    43    13    40 1
    44    16    41 1
    45    17    42 1
    46    21    43 1
    47    22    44 1
    48    22    45 1
    49    22    46 1
    50    23    47 1
    51    26    48 1
    52    29    49 1
    53    29    50 1
@<TRIPOS>SUBSTRUCTURE
     1 5MT         1 TEMP              0 ****  ****    0 ROOT
