@<TRIPOS>MOLECULE
5MV
   67    71     1     0     0
SMALL
bcc


@<TRIPOS>ATOM
      1 N1           0.0000     0.0000     0.0000 nc         1 5MV      -0.626800
      2 N3          -4.8070    -4.1300    -2.3300 ns         1 5MV      -0.179900
      3 C4           3.8080    -0.0000    -3.4490 ca         1 5MV      -0.103000
      4 C5           2.4310     0.0000    -3.5930 ca         1 5MV      -0.028100
      5 C6           1.6180     0.0010    -2.4750 ca         1 5MV      -0.086000
      6 C7           1.3160     0.0000     0.0000 cd         1 5MV       0.410800
      7 C8           1.7580     0.0000     1.3340 cd         1 5MV      -0.311300
      8 C10         -0.4460     0.6000     5.6680 ca         1 5MV      -0.089000
      9 C13          1.7090    -0.5700     4.3050 ca         1 5MV      -0.055000
     10 C15          0.6100     0.0240     6.3980 ca         1 5MV       0.005000
     11 C17          1.6520    -0.5460     8.4870 ca         1 5MV       0.149100
     12 C20         -1.8390    -0.0020     1.7720 c3         1 5MV      -0.003700
     13 C21         -3.9820    -3.0830    -0.2770 ca         1 5MV      -0.121600
     14 C22         -3.8930    -3.0980     1.1150 ca         1 5MV      -0.069000
     15 C24         -2.5950    -1.0870     1.0490 ca         1 5MV      -0.125300
     16 C26         -3.3650    -2.0600    -0.9990 ca         1 5MV      -0.069000
     17 C1           2.1860     0.0000    -1.2030 ca         1 5MV      -0.083500
     18 C2           3.5720    -0.0000    -1.0640 ca         1 5MV      -0.086000
     19 C3           4.3770    -0.0060    -2.1870 ca         1 5MV      -0.028100
     20 Cl1          6.1040    -0.0060    -2.0150 cl         1 5MV      -0.023400
     21 C9           0.6560     0.0000     2.1380 cc         1 5MV      -0.173300
     22 C11         -0.4220     0.5830     4.3110 ca         1 5MV      -0.117000
     23 C12          0.6510    -0.0000     3.6170 ca         1 5MV      -0.018000
     24 C14          1.7000    -0.5680     5.7090 ca         1 5MV      -0.069000
     25 C16          0.6040     0.0260     7.8020 ca         1 5MV      -0.145000
     26 C18          2.7240    -1.1230     7.8000 ca         1 5MV      -0.193000
     27 C19          2.7560    -1.1380     6.4410 ca         1 5MV      -0.041000
     28 C25         -2.6750    -1.0680    -0.3320 ca         1 5MV      -0.095000
     29 N2          -0.4420    -0.0000     1.3290 na         1 5MV       0.517400
     30 C27          2.7630    -1.1530    10.4990 c3         1 5MV       0.243700
     31 O2          -5.2560    -5.0400    -0.3550 o          1 5MV      -0.660100
     32 C29         -5.5430    -5.1860    -3.0320 c3         1 5MV       0.050000
     33 C30         -5.4850    -4.9310    -4.5400 c3         1 5MV      -0.150400
     34 C31         -6.2400    -6.0170    -5.2610 c          1 5MV       0.983600
     35 O3          -6.3250    -5.9990    -6.6010 o          1 5MV      -0.895300
     36 O4          -6.7700    -6.9040    -4.6350 o          1 5MV      -0.895300
     37 C32         -2.4740     1.3560     1.4600 c3         1 5MV      -0.019100
     38 C23         -3.1990    -2.1010     1.7710 ca         1 5MV      -0.095000
     39 H1          -4.3690    -3.3950    -2.8490 hn         1 5MV       0.168500
     40 H2           4.4430    -0.0030    -4.3270 ha         1 5MV       0.123000
     41 H3           0.5400     0.0010    -2.5880 ha         1 5MV       0.129000
     42 H4           2.7900     0.0000     1.6660 ha         1 5MV       0.138000
     43 H5          -1.2810     1.0540     6.1900 ha         1 5MV       0.109000
     44 H6           2.4630    -1.1330     3.7690 ha         1 5MV       0.117000
     45 H7          -1.8800    -0.1820     2.8390 h1         1 5MV       0.066700
     46 H8          -4.3680    -3.8910     1.6810 ha         1 5MV       0.121500
     47 H9          -3.4280    -2.0430    -2.0800 ha         1 5MV       0.121500
     48 H10          4.0180    -0.0030    -0.0770 ha         1 5MV       0.129000
     49 H11         -1.2410     1.0250     3.7560 ha         1 5MV       0.121000
     50 H12         -0.2230     0.4700     8.3430 ha         1 5MV       0.121000
     51 H13          3.5390    -1.5670     8.3590 ha         1 5MV       0.118000
     52 H14          3.5940    -1.5890     5.9230 ha         1 5MV       0.106000
     53 H15         -2.1950    -0.2730    -0.8900 ha         1 5MV       0.115000
     54 H16          2.8280    -2.1940    10.2070 h1         1 5MV      -0.003300
     55 H17          2.6240    -1.0870    11.5720 h1         1 5MV      -0.003300
     56 H18          3.6770    -0.6420    10.2210 h1         1 5MV      -0.003300
     57 H19         -5.0940    -6.1470    -2.8110 h1         1 5MV       0.039200
     58 H20         -6.5750    -5.1850    -2.7050 h1         1 5MV       0.039200
     59 H21         -5.9340    -3.9710    -4.7620 hc         1 5MV       0.006700
     60 H22         -4.4520    -4.9310    -4.8670 hc         1 5MV       0.006700
     61 H24         -1.7350     2.0030     1.0030 hc         1 5MV       0.019367
     62 H25         -2.8310     1.8070     2.3770 hc         1 5MV       0.019367
     63 H26         -3.3040     1.2180     0.7780 hc         1 5MV       0.019367
     64 H27         -3.1300    -2.1120     2.8520 ha         1 5MV       0.115000
     65 Cl2          1.7250     0.0010    -5.1780 cl         1 5MV      -0.023400
     66 O1           1.6480    -0.5440     9.8460 os         1 5MV      -0.308900
     67 C28         -4.7230    -4.1480    -0.9860 c          1 5MV       0.570700
@<TRIPOS>BOND
     1     1     6 2   
     2     1    29 1   
     3     2    32 1   
     4     2    39 1   
     5     2    67 1   
     6     3     4 ar  
     7     3    19 ar  
     8     3    40 1   
     9     4     5 ar  
    10     4    65 1   
    11     5    17 ar  
    12     5    41 1   
    13     6     7 1   
    14     6    17 1   
    15     7    21 2   
    16     7    42 1   
    17     8    10 ar  
    18     8    22 ar  
    19     8    43 1   
    20     9    23 ar  
    21     9    24 ar  
    22     9    44 1   
    23    10    24 ar  
    24    10    25 ar  
    25    11    25 ar  
    26    11    26 ar  
    27    11    66 1   
    28    12    15 1   
    29    12    29 1   
    30    12    37 1   
    31    12    45 1   
    32    13    14 ar  
    33    13    16 ar  
    34    13    67 1   
    35    14    38 ar  
    36    14    46 1   
    37    15    28 ar  
    38    15    38 ar  
    39    16    28 ar  
    40    16    47 1   
    41    17    18 ar  
    42    18    19 ar  
    43    18    48 1   
    44    19    20 1   
    45    21    23 1   
    46    21    29 1   
    47    22    23 ar  
    48    22    49 1   
    49    24    27 ar  
    50    25    50 1   
    51    26    27 ar  
    52    26    51 1   
    53    27    52 1   
    54    28    53 1   
    55    30    54 1   
    56    30    55 1   
    57    30    56 1   
    58    30    66 1   
    59    31    67 2   
    60    32    33 1   
    61    32    57 1   
    62    32    58 1   
    63    33    34 1   
    64    33    59 1   
    65    33    60 1   
    66    34    35 1   
    67    34    36 1   
    68    37    61 1   
    69    37    62 1   
    70    37    63 1   
    71    38    64 1   
@<TRIPOS>SUBSTRUCTURE
     1 5MV         1 TEMP              0 ****  ****    0 ROOT
