@<TRIPOS>MOLECULE
molecule
   46    48     1     0     0
SMALL
bcc


@<TRIPOS>ATOM
      1 N1           0.0000     0.0000     0.0000 nc         1 5MX      -0.634700
      2 C2           1.3100     0.0000     0.0000 cd         1 5MX       0.496800
      3 N2           1.9620     0.0020    -1.2060 nz         1 5MX      -0.749600
      4 N3           2.0560     0.0000     1.1410 ns         1 5MX      -0.480400
      5 C4           1.4550    -0.0010     2.3540 c          1 5MX       0.602000
      6 O4           2.1060    -0.0020     3.3820 o          1 5MX      -0.486500
      7 N5          -0.6950    -0.0040     3.5230 nb         1 5MX      -0.575000
      8 C6          -2.0120    -0.0040     3.5030 ca         1 5MX       0.390900
      9 C7          -2.7030    -0.0040     2.2850 ca         1 5MX       0.319500
     10 N8          -2.0400    -0.0020     1.1370 nb         1 5MX      -0.561000
     11 C4A         -0.0210    -0.0020     2.3820 ca         1 5MX       0.266500
     12 C8A         -0.7090    -0.0010     1.1460 ca         1 5MX       0.509000
     13 CAM         -4.1860    -0.0050     2.2800 c          1 5MX       0.532600
     14 OAN         -4.7980    -0.0060     3.3300 o          1 5MX      -0.563100
     15 NAO         -4.8560    -0.0050     1.1110 ns         1 5MX      -0.612900
     16 CAP         -6.3210    -0.0060     1.1040 c3         1 5MX      -0.292000
     17 CAQ         -6.8250    -0.0060    -0.3400 c3         1 5MX       0.197000
     18 NAR         -8.2900    -0.0070    -0.3450 ns         1 5MX      -0.555900
     19 CAS         -8.9600    -0.0070    -1.5150 c          1 5MX       0.752100
     20 OAT        -10.3060    -0.0080    -1.5200 os         1 5MX      -0.427900
     21 OAU         -8.3480    -0.0060    -2.5650 o          1 5MX      -0.616000
     22 HN2          1.5560    -0.6540    -1.8430 hn         1 5MX       0.492467
     23 HN2A         1.6270     0.9020    -1.4890 hn         1 5MX       0.492467
     24 HN3          3.0550     0.0000     1.0820 hn         1 5MX       0.352500
     25 H6          -2.5600     0.0650     4.4350 h4         1 5MX       0.091100
     26 HNAO        -5.4430     0.3950     1.8160 hn         1 5MX       0.391500
     27 HAP         -6.4340     0.9900     1.5140 h1         1 5MX       0.194700
     28 HAPA        -5.6430     0.3900     0.3580 h1         1 5MX       0.194700
     29 HAQ         -6.4570    -0.8860    -0.8540 h1         1 5MX       0.059700
     30 HAQA        -6.4330     0.8850    -0.8140 h1         1 5MX       0.059700
     31 HNAR        -8.7760     0.2520     0.4910 hn         1 5MX       0.339500
     32 C11        -10.9600    -0.0080    -2.8170 c3         1 5MX       0.218700
     33 H11        -10.6230     0.8860    -3.3270 h1         1 5MX       0.058700
     34 H12        -10.6950    -0.8940    -3.3800 h1         1 5MX       0.058700
     35 C12        -12.4550    -0.0090    -2.6250 ca         1 5MX      -0.109300
     36 C13        -13.1420     1.1870    -2.5360 ca         1 5MX      -0.101000
     37 C14        -14.5130     1.1860    -2.3600 ca         1 5MX      -0.130500
     38 C15        -15.1970    -0.0110    -2.2740 ca         1 5MX      -0.109000
     39 C16        -14.5100    -1.2080    -2.3640 ca         1 5MX      -0.130500
     40 C17        -13.1400    -1.2070    -2.5440 ca         1 5MX      -0.101000
     41 H13        -12.6000     2.1250    -2.5650 ha         1 5MX       0.133000
     42 H14        -15.0530     2.1240    -2.3030 ha         1 5MX       0.135500
     43 H15        -16.2720    -0.0130    -2.1450 ha         1 5MX       0.136000
     44 H16        -15.0400    -2.1510    -2.2990 ha         1 5MX       0.135500
     45 H17        -12.5980    -2.1440    -2.5890 ha         1 5MX       0.133000
     46 H23          2.9530    -0.1010    -1.1160 hn         1 5MX       0.492467
@<TRIPOS>BOND
     1     1     2 2   
     2     1    12 1   
     3     2     3 1   
     4     2     4 1   
     5     3    22 1   
     6     3    23 1   
     7     4     5 1   
     8     4    24 1   
     9     5     6 2   
    10     5    11 1   
    11     7     8 ar  
    12     7    11 ar  
    13     8     9 ar  
    14     8    25 1   
    15     9    10 ar  
    16     9    13 1   
    17    10    12 ar  
    18    11    12 ar  
    19    13    14 2   
    20    13    15 1   
    21    15    16 1   
    22    15    26 1   
    23    16    17 1   
    24    16    27 1   
    25    16    28 1   
    26    17    18 1   
    27    17    29 1   
    28    17    30 1   
    29    18    19 1   
    30    18    31 1   
    31    19    20 1   
    32    19    21 2   
    33    20    32 1   
    34    32    35 1   
    35    32    33 1   
    36    32    34 1   
    37    35    36 ar  
    38    36    37 ar  
    39    37    38 ar  
    40    38    39 ar  
    41    39    40 ar  
    42    35    40 ar  
    43    36    41 1   
    44    37    42 1   
    45    38    43 1   
    46    39    44 1   
    47    40    45 1   
    48    46     3 1   
@<TRIPOS>SUBSTRUCTURE
     1 5MX         1 TEMP              0 ****  ****    0 ROOT
