@<TRIPOS>MOLECULE
5MX
   46    50     1     0     0
SMALL
bcc


@<TRIPOS>ATOM
      1 N1           0.0000     0.0000     0.0000 n2         1 5MX       0.058000
      2 C2           1.3100     0.0000     0.0000 c2         1 5MX      -0.408000
      3 N2           1.9620     0.0020    -1.2060 nz         1 5MX       0.945000
      4 N3           2.0560     0.0000     1.1410 ns         1 5MX       0.140000
      5 C4           1.4550    -0.0010     2.3540 c2         1 5MX       0.243000
      6 O4           2.1060    -0.0020     3.3820 o          1 5MX      -0.250000
      7 N5          -0.6950    -0.0040     3.5230 n2         1 5MX       0.069000
      8 C6          -2.0120    -0.0040     3.5030 c2         1 5MX      -0.005000
      9 C7          -2.7030    -0.0040     2.2850 c2         1 5MX      -0.107000
     10 N8          -2.0400    -0.0020     1.1370 n2         1 5MX       0.101000
     11 C4A         -0.0210    -0.0020     2.3820 c2         1 5MX      -0.117000
     12 C8A         -0.7090    -0.0010     1.1460 c2         1 5MX      -0.104000
     13 CAM         -4.1860    -0.0050     2.2800 c2         1 5MX       0.321000
     14 OAN         -4.7980    -0.0060     3.3300 o          1 5MX      -0.349000
     15 NAO         -4.8560    -0.0050     1.1110 ny         1 5MX      -0.280000
     16 CAP         -6.3210    -0.0060     1.1040 DU         1 5MX      -0.380000
     17 CAQ         -6.8250    -0.0060    -0.3400 c3         1 5MX       0.040000
     18 NAR         -8.2900    -0.0070    -0.3450 ns         1 5MX       0.025000
     19 CAS         -8.9600    -0.0070    -1.5150 c2         1 5MX       0.338000
     20 OAT        -10.3060    -0.0080    -1.5200 os         1 5MX      -0.252000
     21 OAU         -8.3480    -0.0060    -2.5650 o          1 5MX      -0.475000
     22 HN2          1.5560    -0.6540    -1.8430 hn         1 5MX       0.030667
     23 HN2A         1.6270     0.9020    -1.4890 hn         1 5MX       0.030667
     24 HN3          3.0550     0.0000     1.0820 hn         1 5MX       0.109000
     25 H6          -2.5600     0.0650     4.4350 h4         1 5MX       0.173000
     26 HNAO        -5.4430     0.3950     1.8160 DU         1 5MX       0.285500
     27 HAP         -6.4340     0.9900     1.5140 hx         1 5MX       0.049000
     28 HAPA        -5.6430     0.3900     0.3580 DU         1 5MX       0.285500
     29 HAQ         -6.4570    -0.8860    -0.8540 h1         1 5MX       0.060500
     30 HAQA        -6.4330     0.8850    -0.8140 h1         1 5MX       0.060500
     31 HNAR        -8.7760     0.2520     0.4910 hn         1 5MX       0.104000
     32 C11        -10.9600    -0.0080    -2.8170 c3         1 5MX       0.148000
     33 H11        -10.6230     0.8860    -3.3270 h1         1 5MX       0.055000
     34 H12        -10.6950    -0.8940    -3.3800 h1         1 5MX       0.055000
     35 C12        -12.4550    -0.0090    -2.6250 ca         1 5MX      -0.122000
     36 C13        -13.1420     1.1870    -2.5360 ca         1 5MX      -0.074000
     37 C14        -14.5130     1.1860    -2.3600 ca         1 5MX      -0.103500
     38 C15        -15.1970    -0.0110    -2.2740 ca         1 5MX      -0.082000
     39 C16        -14.5100    -1.2080    -2.3640 ca         1 5MX      -0.103500
     40 C17        -13.1400    -1.2070    -2.5440 ca         1 5MX      -0.074000
     41 H13        -12.6000     2.1250    -2.5650 ha         1 5MX       0.105000
     42 H14        -15.0530     2.1240    -2.3030 ha         1 5MX       0.106500
     43 H15        -16.2720    -0.0130    -2.1450 ha         1 5MX       0.105000
     44 H16        -15.0400    -2.1510    -2.2990 ha         1 5MX       0.106500
     45 H17        -12.5980    -2.1440    -2.5890 ha         1 5MX       0.105000
     46 H23          2.9530    -0.1010    -1.1160 hn         1 5MX       0.030667
@<TRIPOS>BOND
     1     1     2 1   
     2     1    12 1   
     3     2     3 1   
     4     2     4 1   
     5     3    22 1   
     6     3    23 1   
     7     3    46 1   
     8     4     5 1   
     9     4    24 1   
    10     5     6 1   
    11     5    11 1   
    12     7     8 1   
    13     7    11 1   
    14     8     9 1   
    15     8    25 1   
    16     9    10 1   
    17     9    13 1   
    18    10    12 1   
    19    11    12 1   
    20    13    14 1   
    21    13    15 1   
    22    15    16 1   
    23    15    26 1   
    24    15    28 1   
    25    16    17 1   
    26    16    26 1   
    27    16    27 1   
    28    16    28 1   
    29    17    18 1   
    30    17    29 1   
    31    17    30 1   
    32    18    19 1   
    33    18    31 1   
    34    19    20 1   
    35    19    21 1   
    36    20    32 1   
    37    32    33 1   
    38    32    34 1   
    39    32    35 1   
    40    35    36 1   
    41    35    40 1   
    42    36    37 1   
    43    36    41 1   
    44    37    38 1   
    45    37    42 1   
    46    38    39 1   
    47    38    43 1   
    48    39    40 1   
    49    39    44 1   
    50    40    45 1   
@<TRIPOS>SUBSTRUCTURE
     1 5MX         1 TEMP              0 ****  ****    0 ROOT
