@<TRIPOS>MOLECULE
5MZ
   22    22     1     0     0
SMALL
bcc


@<TRIPOS>ATOM
      1 NAA        -0.5600   -0.3550   -1.6710 nh        1 5MZ     -0.771600
      2 CLAB        4.4660   -1.4360   -7.3180 cl        1 5MZ     -0.139400
      3 CAC         6.5300    0.2730   -0.9370 c2        1 5MZ     -0.241100
      4 CAD         0.1200   -0.2640    0.8380 ce        1 5MZ     -0.368100
      5 CAE         5.3010    0.1970   -1.3430 c1        1 5MZ      0.041200
      6 CAF         1.3650   -0.1170    0.2050 c1        1 5MZ      0.128200
      7 NAH         2.3530    0.0120   -3.5570 nc        1 5MZ     -0.397300
      8 NAI         4.5450    0.1700   -4.2130 nd        1 5MZ     -0.653000
      9 OAJ         2.3920    0.0230   -4.8690 os        1 5MZ     -0.148100
     10 CAK         0.1130   -0.2700   -0.5440 ce        1 5MZ     -0.053100
     11 CAL         4.0500    0.1180   -1.7120 cf        1 5MZ     -0.276900
     12 CAM         3.7570    0.1200   -5.2800 cc        1 5MZ      0.478700
     13 CAN         3.6370    0.0980   -3.1080 cd        1 5MZ      0.621800
     14 HNAA       -0.0780   -0.3020   -2.5380 hn        1 5MZ      0.446300
     15 HNAB       -1.5430   -0.4760   -1.6730 hn        1 5MZ      0.446300
     16 HAC        -0.4800   -0.3330    1.7220 ha        1 5MZ      0.182000
     17 HAD         7.1450   -0.6210   -0.7580 ha        1 5MZ      0.139500
     18 HAE         7.0270    1.2360   -0.7470 ha        1 5MZ      0.139500
     19 HAF         3.2290    0.0600   -0.9560 ha        1 5MZ      0.223000
     20 HAG         3.0890    0.4590   -7.2810 h1        1 5MZ      0.101200
     21 HAGA        4.8600    0.8450   -6.9640 h1        1 5MZ      0.101200
     22 CAG         4.0140    0.1500   -6.7320 c3        1 5MZ     -0.001300
@<TRIPOS>BOND
     1    1   10 1
     2    1   14 1
     3    1   15 1
     4    2   22 1
     5    3    5 2
     6    3   17 1
     7    3   18 1
     8    4    6 2
     9    4   10 1
    10    4   16 1
    11    5   11 2
    12    6   10 2
    13    7    9 1
    14    7   13 2
    15    8   12 2
    16    8   13 1
    17    9   12 1
    18   11   13 1
    19   11   19 1
    20   12   22 1
    21   20   22 1
    22   21   22 1
@<TRIPOS>SUBSTRUCTURE
     1 5MZ         1 TEMP              0 ****  ****    0 ROOT
