@<TRIPOS>MOLECULE
molecule
   50    53     1     0     0
SMALL
bcc


@<TRIPOS>ATOM
      1 C4           0.0000     0.0000     0.0000 ca         1 5N1       0.564600
      2 C5           1.3960     0.0000     0.0000 ca         1 5N1      -0.362600
      3 C6           2.0630     0.0000     1.2410 ca         1 5N1       0.792200
      4 N1           1.3410     0.0020     2.3560 nb         1 5N1      -0.879000
      5 N3          -0.6420     0.0010     1.1570 nb         1 5N1      -0.841000
      6 CBC         -1.0160     1.4500    -1.7350 c3         1 5N1      -0.085100
      7 CBB         -0.7640     0.0050    -1.2980 c3         1 5N1      -0.132700
      8 C2           0.0180     0.0030     2.3060 ca         1 5N1       0.992900
      9 NBA         -0.6980     0.0030     3.4900 nv         1 5N1      -0.985500
     10 NAZ          3.4440    -0.0000     1.2970 nv         1 5N1      -0.987500
     11 CAG          2.1310    -0.0020    -1.2300 cg         1 5N1      -0.062000
     12 CAH          2.7490     0.0020    -2.2270 c1         1 5N1      -0.161100
     13 CAI          3.4500    -0.1670    -3.3190 c3         1 5N1       0.082700
     14 CAJ          4.9330     0.0500    -3.0120 c3         1 5N1      -0.075100
     15 CAK          3.0140    -1.5630    -3.9980 ca         1 5N1       0.004700
     16 CAL          2.0800    -1.8160    -4.9020 ca         1 5N1      -0.145000
     17 CAP          3.7450    -2.8760    -3.5910 ca         1 5N1       0.050100
     18 OAW          5.2180    -2.9890    -3.2060 os         1 5N1      -0.399900
     19 CAX          5.0670    -4.5050    -2.9850 c3         1 5N1       0.497200
     20 OAY          4.3380    -5.0060    -3.4770 os         1 5N1      -0.298900
     21 CAO          3.4340    -3.8280    -4.0670 ca         1 5N1       0.092100
     22 CAN          2.4080    -4.0160    -5.0430 ca         1 5N1      -0.104000
     23 CAM          1.8200    -2.9980    -5.3770 cp         1 5N1      -0.058000
     24 CAQ          0.5540    -3.0650    -6.5480 cp         1 5N1      -0.004000
     25 CAR          0.7280    -3.9740    -7.3360 ca         1 5N1      -0.256300
     26 CAS         -0.2450    -4.1220    -8.3370 ca         1 5N1       0.443200
     27 NAT         -1.4760    -2.9370    -8.1840 nb         1 5N1      -0.683000
     28 CAU         -1.4860    -2.1570    -7.3880 ca         1 5N1       0.443200
     29 CAV         -0.3250    -2.1290    -6.3480 ca         1 5N1      -0.256300
     30 H1          -0.1540     2.0580    -1.4900 hc         1 5N1       0.040367
     31 H2          -1.1860     1.4790    -2.8050 hc         1 5N1       0.040367
     32 H3          -1.8880     1.8360    -1.2210 hc         1 5N1       0.040367
     33 H4          -1.6920    -0.5390    -1.1730 hc         1 5N1       0.061200
     34 H5          -0.1680    -0.4680    -2.0690 hc         1 5N1       0.061200
     35 H6          -1.6980     0.0290     3.4700 hn         1 5N1       0.450800
     36 H7          -0.2170    -0.0560     4.3650 hn         1 5N1       0.450800
     37 H8           3.9790    -0.0800     0.4550 hn         1 5N1       0.448300
     38 H9           3.9080     0.0260     2.1840 hn         1 5N1       0.448300
     39 H10          3.1800     0.6080    -4.0260 hc         1 5N1       0.067700
     40 H11          5.5090    -0.0540    -3.9230 hc         1 5N1       0.049700
     41 H12          5.2630    -0.6850    -2.2890 hc         1 5N1       0.049700
     42 H13          5.0760     1.0450    -2.6060 hc         1 5N1       0.049700
     43 H14          1.2370    -1.1370    -4.9510 ha         1 5N1       0.149000
     44 H15          6.0380    -4.9550    -3.1500 h2         1 5N1      -0.068800
     45 H16          4.7400    -4.6520    -1.9620 h2         1 5N1      -0.068800
     46 H17          2.1330    -4.9950    -5.4160 ha         1 5N1       0.158000
     47 H18          1.5150    -4.7050    -7.1940 ha         1 5N1       0.154500
     48 H19         -0.1260    -4.8230    -9.1540 h4         1 5N1       0.039600
     49 H20         -2.3080    -1.4610    -7.2810 h4         1 5N1       0.039600
     50 H21         -0.3770    -1.5640    -5.4250 ha         1 5N1       0.154500
@<TRIPOS>BOND
     1    28    27 ar
     2    28    29 ar
     3    27    26 ar
     4    29    24 ar
     5    26    25 ar
     6    24    25 ar
     7    24    23 1
     8    14    13 1
     9    23    22 ar
    10    23    16 ar
    11    22    21 ar
    12    16    15 ar
    13    21    17 ar
    14    21    20 1
    15    15    17 ar
    16    15    13 1
    17    17    18 1
    18    13    12 1
    19    20    19 1
    20    18    19 1
    21    12    11 3
    22    11     2 1
    23    10     3 1
    24     2     3 ar
    25     2     1 ar
    26     6     7 1
    27     3     4 ar
    28     7     1 1
    29     1     5 ar
    30     4     8 ar
    31     5     8 ar
    32     8     9 1
    33     6    30 1
    34     6    31 1
    35     6    32 1
    36     7    33 1
    37     7    34 1
    38     9    35 1
    39     9    36 1
    40    10    37 1
    41    10    38 1
    42    13    39 1
    43    14    40 1
    44    14    41 1
    45    14    42 1
    46    16    43 1
    47    19    44 1
    48    19    45 1
    49    22    46 1
    50    25    47 1
    51    26    48 1
    52    28    49 1
    53    29    50 1
@<TRIPOS>SUBSTRUCTURE
     1 5N1         1 TEMP              0 ****  ****    0 ROOT
