@<TRIPOS>MOLECULE
molecule
   56    60     1     0     0
SMALL
bcc


@<TRIPOS>ATOM
      1 C1           0.0000     0.0000     0.0000 ca         1 5N2      -0.102000
      2 C2           1.3890     0.0000     0.0000 ca         1 5N2      -0.181000
      3 C3           2.0930     0.0000     1.1840 ca         1 5N2      -0.094000
      4 C7          -0.7110    -0.0000     3.6820 cc         1 5N2       0.419900
      5 C10          2.0970     0.0000     3.6870 c          1 5N2       0.669100
      6 C12         -2.2170     0.0000     3.7210 c3         1 5N2      -0.114400
      7 C13         -2.6830     0.0010     5.1550 ca         1 5N2      -0.126300
      8 C14         -2.8950     1.2000     5.8110 ca         1 5N2      -0.112000
      9 C15         -3.3220     1.2090     7.1280 ca         1 5N2      -0.136000
     10 C16         -3.5380     0.0210     7.7940 ca         1 5N2      -0.092000
     11 C22         -2.4340    -1.5450     9.8150 c3         1 5N2      -0.018000
     12 C27         -0.1670    -3.6640    11.8030 ca         1 5N2       0.535200
     13 C30          2.1360    -4.4570    13.0430 ca         1 5N2      -0.263300
     14 C31          1.9950    -4.4600    11.6670 ca         1 5N2       0.465200
     15 C4           1.4010    -0.0000     2.3940 ca         1 5N2      -0.140600
     16 C5          -0.0130    -0.0000     2.3960 ca         1 5N2      -0.126900
     17 C6          -0.7040    -0.0000     1.1840 ca         1 5N2      -0.089000
     18 N8          -0.0310     0.0010     4.7900 nd         1 5N2      -0.422300
     19 N9           1.3630     0.0010     4.8200 ns         1 5N2      -0.301900
     20 O11          3.3140    -0.0010     3.7370 o          1 5N2      -0.637500
     21 C17         -3.3250    -1.1930     7.1380 ca         1 5N2      -0.110600
     22 C18         -2.9000    -1.1950     5.8080 ca         1 5N2      -0.059000
     23 O20         -4.1740    -3.3640     7.2930 o          1 5N2      -0.600100
     24 N21         -3.0980    -2.6430     9.0970 n          1 5N2      -0.357800
     25 C23         -1.0960    -2.0530    10.3620 c3         1 5N2      -0.219200
     26 N24         -1.3260    -3.2660    11.1590 nh         1 5N2      -0.351300
     27 C25         -1.8690    -4.3520    10.3320 c3         1 5N2      -0.219200
     28 C26         -3.2430    -3.9360     9.7840 c3         1 5N2      -0.018000
     29 C28         -0.1030    -3.6380    13.2060 ca         1 5N2      -0.093300
     30 C29          1.0780    -4.0440    13.8350 ca         1 5N2      -0.075000
     31 N32          0.8730    -4.0720    11.0940 nb         1 5N2      -0.620000
     32 N34         -2.1320    -2.8670    14.5810 n1         1 5N2      -0.311800
     33 H1          -0.0980    -0.1540    -1.0680 ha         1 5N2       0.157000
     34 H2           2.2570     0.2390    -0.6030 ha         1 5N2       0.157000
     35 H3           3.1760     0.0060     1.1660 ha         1 5N2       0.154000
     36 H4          -2.6200     0.9880     3.9120 hc         1 5N2       0.101700
     37 H5          -2.8360    -0.6570     3.1220 hc         1 5N2       0.101700
     38 H6          -2.7240     2.1050     5.2400 ha         1 5N2       0.129000
     39 H7          -3.4830     2.1640     7.6140 ha         1 5N2       0.134000
     40 H8          -4.1400     0.0750     8.6930 ha         1 5N2       0.150000
     41 H9          -1.6310    -1.8920    10.4540 h1         1 5N2       0.116950
     42 H10         -2.4340    -0.5180     9.4690 h1         1 5N2       0.116950
     43 H11          2.9430    -4.7220    13.7160 ha         1 5N2       0.159000
     44 H12          2.9160    -4.8180    11.2230 h4         1 5N2       0.047100
     45 H13         -1.7730    -0.1470     1.0850 ha         1 5N2       0.143000
     46 H14          1.9250     0.1750     5.6290 hn         1 5N2       0.370500
     47 H15         -2.7100    -1.9970     5.1040 ha         1 5N2       0.150000
     48 H16         -1.3040    -2.7680    11.1490 h1         1 5N2       0.108450
     49 H17         -0.7860    -1.1250    10.8260 h1         1 5N2       0.108450
     50 H18         -2.8350    -4.1500     9.8860 h1         1 5N2       0.108450
     51 H19         -1.8140    -5.3670    10.7080 h1         1 5N2       0.108450
     52 H20         -2.6240    -4.6830    10.2660 h1         1 5N2       0.116950
     53 H21         -3.7060    -4.6590     9.1230 h1         1 5N2       0.116950
     54 H22          1.3650    -4.0420    14.8800 ha         1 5N2       0.163000
     55 C19         -3.5620    -2.4700     7.8430 c          1 5N2       0.670700
     56 C33         -1.2280    -3.2020    13.9800 cg         1 5N2       0.214800
@<TRIPOS>BOND
     1    32    56 3   
     2    56    29 1   
     3    30    29 ar  
     4    30    13 ar  
     5    29    12 ar  
     6    20     5 2   
     7    27    28 1   
     8    27    26 1   
     9    28    24 1   
    10    23    55 2   
    11    13    14 ar  
    12    12    26 1   
    13    12    31 ar  
    14     5    19 1   
    15     5    15 1   
    16    26    25 1   
    17    24    55 1   
    18    24    11 1   
    19     3    15 ar  
    20     3     2 ar  
    21    19    18 1   
    22    55    21 1   
    23    15    16 ar  
    24    14    31 ar  
    25     2     1 ar  
    26    25    11 1   
    27    18     4 2   
    28    21    22 ar  
    29    21    10 ar  
    30    16     4 1   
    31    16    17 ar  
    32    22     7 ar  
    33     1    17 ar  
    34     4     6 1   
    35    10     9 ar  
    36     7     6 1   
    37     7     8 ar  
    38     9     8 ar  
    39     1    33 1   
    40     2    34 1   
    41     3    35 1   
    42     6    36 1   
    43     6    37 1   
    44     8    38 1   
    45     9    39 1   
    46    10    40 1   
    47    11    41 1   
    48    11    42 1   
    49    13    43 1   
    50    14    44 1   
    51    17    45 1   
    52    19    46 1   
    53    22    47 1   
    54    25    48 1   
    55    25    49 1   
    56    27    50 1   
    57    27    51 1   
    58    28    52 1   
    59    28    53 1   
    60    30    54 1   
@<TRIPOS>SUBSTRUCTURE
     1 5N2         1 TEMP              0 ****  ****    0 ROOT
