@<TRIPOS>MOLECULE
5N2
   56    62     1     0     0
SMALL
bcc


@<TRIPOS>ATOM
      1 C1           0.0000     0.0000     0.0000 ca         1 5N2      -0.069000
      2 C2           1.3890     0.0000     0.0000 ca         1 5N2      -0.167000
      3 C3           2.0930     0.0000     1.1840 ca         1 5N2      -0.065000
      4 C7          -0.7110    -0.0000     3.6820 c2         1 5N2      -0.018000
      5 C10          2.0970     0.0000     3.6870 c2         1 5N2       0.225000
      6 C12         -2.2170     0.0000     3.7210 c3         1 5N2      -0.083000
      7 C13         -2.6830     0.0010     5.1550 ca         1 5N2      -0.129000
      8 C14         -2.8950     1.2000     5.8110 ca         1 5N2      -0.084000
      9 C15         -3.3220     1.2090     7.1280 ca         1 5N2      -0.107000
     10 C16         -3.5380     0.0210     7.7940 ca         1 5N2      -0.069000
     11 C22         -2.4340    -1.5450     9.8150 c3         1 5N2      -0.622000
     12 C27         -0.1670    -3.6640    11.8030 c2         1 5N2      -0.271000
     13 C30          2.1360    -4.4570    13.0430 c2         1 5N2      -0.148000
     14 C31          1.9950    -4.4600    11.6670 c2         1 5N2      -0.030000
     15 C4           1.4010    -0.0000     2.3940 ca         1 5N2      -0.127000
     16 C5          -0.0130    -0.0000     2.3960 ca         1 5N2      -0.044000
     17 C6          -0.7040    -0.0000     1.1840 ca         1 5N2      -0.056000
     18 N8          -0.0310     0.0010     4.7900 n2         1 5N2      -0.094000
     19 N9           1.3630     0.0010     4.8200 ns         1 5N2       0.116000
     20 O11          3.3140    -0.0010     3.7370 o          1 5N2      -0.401000
     21 C17         -3.3250    -1.1930     7.1380 ca         1 5N2      -0.101000
     22 C18         -2.9000    -1.1950     5.8080 ca         1 5N2      -0.028000
     23 O20         -4.1740    -3.3640     7.2930 o          1 5N2      -0.382000
     24 N21         -3.0980    -2.6430     9.0970 n          1 5N2       0.276000
     25 C23         -1.0960    -2.0530    10.3620 c3         1 5N2      -0.543000
     26 N24         -1.3260    -3.2660    11.1590 nh         1 5N2       1.102000
     27 C25         -1.8690    -4.3520    10.3320 DU         1 5N2      -0.511000
     28 C26         -3.2430    -3.9360     9.7840 c3         1 5N2       0.329000
     29 C28         -0.1030    -3.6380    13.2060 c2         1 5N2       0.037000
     30 C29          1.0780    -4.0440    13.8350 c2         1 5N2      -0.067000
     31 N32          0.8730    -4.0720    11.0940 n2         1 5N2       0.081000
     32 N34         -2.1320    -2.8670    14.5810 n1         1 5N2       0.011000
     33 H1          -0.0980    -0.1540    -1.0680 ha         1 5N2       0.128000
     34 H2           2.2570     0.2390    -0.6030 ha         1 5N2       0.133000
     35 H3           3.1760     0.0060     1.1660 ha         1 5N2       0.127000
     36 H4          -2.6200     0.9880     3.9120 hc         1 5N2       0.111500
     37 H5          -2.8360    -0.6570     3.1220 hc         1 5N2       0.111500
     38 H6          -2.7240     2.1050     5.2400 ha         1 5N2       0.104000
     39 H7          -3.4830     2.1640     7.6140 ha         1 5N2       0.105000
     40 H8          -4.1400     0.0750     8.6930 ha         1 5N2       0.123000
     41 H9          -1.6310    -1.8920    10.4540 h1         1 5N2       0.139500
     42 H10         -2.4340    -0.5180     9.4690 h1         1 5N2       0.139500
     43 H11          2.9430    -4.7220    13.7160 ha         1 5N2       0.130000
     44 H12          2.9160    -4.8180    11.2230 h4         1 5N2       0.133000
     45 H13         -1.7730    -0.1470     1.0850 ha         1 5N2       0.115000
     46 H14          1.9250     0.1750     5.6290 hn         1 5N2       0.121000
     47 H15         -2.7100    -1.9970     5.1040 ha         1 5N2       0.121000
     48 H16         -1.3040    -2.7680    11.1490 h1         1 5N2       0.034500
     49 H17         -0.7860    -1.1250    10.8260 h1         1 5N2       0.034500
     50 H18         -2.8350    -4.1500     9.8860 DU         1 5N2      -0.358000
     51 H19         -1.8140    -5.3670    10.7080 ha         1 5N2       0.103000
     52 H20         -2.6240    -4.6830    10.2660 DU         1 5N2       0.052000
     53 H21         -3.7060    -4.6590     9.1230 h1         1 5N2       0.082000
     54 H22          1.3650    -4.0420    14.8800 ha         1 5N2       0.131000
     55 C19         -3.5620    -2.4700     7.8430 c2         1 5N2       0.263000
     56 C33         -1.2280    -3.2020    13.9800 c1         1 5N2      -0.146000
@<TRIPOS>BOND
     1     1     2 1   
     2     1    17 1   
     3     1    33 1   
     4     2     3 1   
     5     2    34 1   
     6     3    15 1   
     7     3    35 1   
     8     4     6 1   
     9     4    16 1   
    10     4    18 1   
    11     5    15 1   
    12     5    19 1   
    13     5    20 1   
    14     6     7 1   
    15     6    36 1   
    16     6    37 1   
    17     7     8 1   
    18     7    22 1   
    19     8     9 1   
    20     8    38 1   
    21     9    10 1   
    22     9    39 1   
    23    10    21 1   
    24    10    40 1   
    25    11    24 1   
    26    11    25 1   
    27    11    41 1   
    28    11    42 1   
    29    12    26 1   
    30    12    29 1   
    31    12    31 1   
    32    13    14 1   
    33    13    30 1   
    34    13    43 1   
    35    14    31 1   
    36    14    44 1   
    37    15    16 1   
    38    16    17 1   
    39    17    45 1   
    40    18    19 1   
    41    19    46 1   
    42    21    22 1   
    43    21    55 1   
    44    22    47 1   
    45    23    55 1   
    46    24    28 1   
    47    24    55 1   
    48    25    26 1   
    49    25    48 1   
    50    25    49 1   
    51    26    27 1   
    52    27    28 1   
    53    27    50 1   
    54    27    51 1   
    55    27    52 1   
    56    28    52 1   
    57    28    53 1   
    58    29    30 1   
    59    29    56 1   
    60    30    54 1   
    61    32    56 1   
    62    50    52 1   
@<TRIPOS>SUBSTRUCTURE
     1 5N2         1 TEMP              0 ****  ****    0 ROOT
