@<TRIPOS>MOLECULE
molecule
   43    47     1     0     0
SMALL
bcc


@<TRIPOS>ATOM
      1 C4           0.0000     0.0000     0.0000 ca         1 5N3      -0.462900
      2 C14          1.5380     0.0100     4.8810 cc         1 5N3       0.380200
      3 C5           1.3910     0.0000     0.0000 ca         1 5N3       0.747200
      4 C7           1.3540    -0.0010     2.3080 ca         1 5N3       0.832500
      5 C9           2.1010     0.0000     3.5890 cc         1 5N3      -0.371800
      6 C10          3.4590    -0.0070     3.7320 cd         1 5N3      -0.055300
      7 C3          -0.6690     0.0060     1.2110 ca         1 5N3       0.481600
      8 C2          -2.1470     0.0100     0.9060 c3         1 5N3       0.091500
      9 N6           2.0310     0.0000     1.1670 nb         1 5N3      -0.763000
     10 N8           0.0270     0.0070     2.3340 nb         1 5N3      -0.754000
     11 N11          3.7290    -0.0030     5.0500 na         1 5N3      -0.043600
     12 N13          2.5150     0.0080     5.7470 nd         1 5N3      -0.522800
     13 N15          2.0980     0.0010    -1.1930 nu         1 5N3      -0.804900
     14 C16          3.4970     0.0010    -1.1760 cd         1 5N3       0.592800
     15 C17          4.3740     0.0010    -2.3480 ca         1 5N3      -0.257900
     16 C18          4.1490     0.0020    -3.7280 ca         1 5N3      -0.052000
     17 C19          5.2090     0.0030    -4.5880 ca         1 5N3      -0.167000
     18 C20          6.5120     0.0020    -4.1060 ca         1 5N3      -0.070000
     19 C21          6.7590     0.0010    -2.7510 ca         1 5N3      -0.009600
     20 C22          5.6920     0.0000    -1.8540 ca         1 5N3       0.002800
     21 N23          5.6040    -0.0000    -0.4870 na         1 5N3      -0.047100
     22 N25          4.2550     0.0060    -0.1130 nc         1 5N3      -0.492100
     23 Cl           8.3920     0.0000    -2.1630 cl         1 5N3      -0.110400
     24 C27         -1.0410     0.0000    -1.0910 c3         1 5N3       0.191700
     25 O28         -2.2680     0.4240    -0.4670 os         1 5N3      -0.386600
     26 C29         -2.8720     0.9990     1.8220 c3         1 5N3      -0.089100
     27 H1           0.4800     0.0180     5.1150 h4         1 5N3       0.066100
     28 H2           4.1870    -0.0150     2.9300 h4         1 5N3       0.196000
     29 H3          -2.8550    -1.6000     2.1430 hc         1 5N3       0.050033
     30 H4          -3.6860    -1.4570     0.5880 hc         1 5N3       0.050033
     31 H5          -2.0490    -2.1230     0.6580 hc         1 5N3       0.050033
     32 H6           4.6420    -0.0060     5.4620 hn         1 5N3       0.331700
     33 H7           1.6080    -0.0340    -2.0650 hn         1 5N3       0.471800
     34 H8           3.1360     0.0020    -4.1130 ha         1 5N3       0.129000
     35 H9           5.0320     0.0050    -5.6570 ha         1 5N3       0.140000
     36 H10          7.3410     0.0040    -4.8030 ha         1 5N3       0.148000
     37 H11          6.3800     0.0020     0.1450 hn         1 5N3       0.339700
     38 H12         -0.7610     0.6970    -1.8720 h1         1 5N3       0.051700
     39 H13         -1.1550    -0.9980    -1.4970 h1         1 5N3       0.051700
     40 H14         -3.9220     1.0310     1.5590 hc         1 5N3       0.050033
     41 H15         -2.4390     1.9850     1.7020 hc         1 5N3       0.050033
     42 H16         -2.7670     0.6800     2.8520 hc         1 5N3       0.050033
     43 C1          -2.7270    -1.3950     1.0870 c3         1 5N3      -0.089100
@<TRIPOS>BOND
     1    23    19 1
     2    19    20 ar
     3    19    18 ar
     4    21    20 1
     5    21    22 1
     6    20    15 ar
     7    18    17 ar
     8    22    14 2
     9    15    14 1
    10    15    16 ar
    11    17    16 ar
    12    14    13 1
    13    13     3 1
    14     3     9 ar
    15     3     1 ar
    16     9     4 ar
    17     2    12 2
    18     2     5 1
    19     1    24 1
    20     1     7 ar
    21    24    25 1
    22    12    11 1
    23     4     5 1
    24     4    10 ar
    25     5     6 2
    26     7    10 ar
    27     7     8 1
    28    25     8 1
    29    11     6 1
    30     8    43 1
    31     8    26 1
    32     2    27 1
    33     6    28 1
    34    43    29 1
    35    43    30 1
    36    43    31 1
    37    11    32 1
    38    13    33 1
    39    16    34 1
    40    17    35 1
    41    18    36 1
    42    21    37 1
    43    24    38 1
    44    24    39 1
    45    26    40 1
    46    26    41 1
    47    26    42 1
@<TRIPOS>SUBSTRUCTURE
     1 5N3         1 TEMP              0 ****  ****    0 ROOT
