@<TRIPOS>MOLECULE
5N3
   43    47     1     0     0
SMALL
bcc


@<TRIPOS>ATOM
      1 C4           0.0000     0.0000     0.0000 ca         1 5N3      -0.476900
      2 C14          1.5380     0.0100     4.8810 cc         1 5N3       0.442200
      3 C5           1.3910     0.0000     0.0000 ca         1 5N3       0.545200
      4 C7           1.3540    -0.0010     2.3080 ca         1 5N3       0.749500
      5 C9           2.1010     0.0000     3.5890 cc         1 5N3      -0.396800
      6 C10          3.4590    -0.0070     3.7320 cd         1 5N3      -0.215300
      7 C3          -0.6690     0.0060     1.2110 ca         1 5N3       0.421600
      8 C2          -2.1470     0.0100     0.9060 c3         1 5N3       0.112500
      9 N6           2.0310     0.0000     1.1670 nb         1 5N3      -0.636000
     10 N8           0.0270     0.0070     2.3340 nb         1 5N3      -0.628000
     11 N11          3.7290    -0.0030     5.0500 na         1 5N3       0.452400
     12 N13          2.5150     0.0080     5.7470 nd         1 5N3      -0.678800
     13 N15          2.0980     0.0010    -1.1930 nu         1 5N3      -0.328900
     14 C16          3.4970     0.0010    -1.1760 cc         1 5N3       0.460800
     15 C17          4.3740     0.0010    -2.3480 ca         1 5N3      -0.266900
     16 C18          4.1490     0.0020    -3.7280 ca         1 5N3      -0.014000
     17 C19          5.2090     0.0030    -4.5880 ca         1 5N3      -0.143000
     18 C20          6.5120     0.0020    -4.1060 ca         1 5N3      -0.046000
     19 C21          6.7590     0.0010    -2.7510 ca         1 5N3      -0.060600
     20 C22          5.6920     0.0000    -1.8540 ca         1 5N3      -0.163200
     21 N23          5.6040    -0.0000    -0.4870 na         1 5N3       0.420900
     22 N25          4.2550     0.0060    -0.1130 nd         1 5N3      -0.633100
     23 Cl           8.3920     0.0000    -2.1630 cl         1 5N3      -0.028400
     24 C27         -1.0410     0.0000    -1.0910 c3         1 5N3       0.300700
     25 O28         -2.2680     0.4240    -0.4670 os         1 5N3      -0.384600
     26 C29         -2.8720     0.9990     1.8220 c3         1 5N3      -0.004600
     27 H1           0.4800     0.0180     5.1150 h4         1 5N3       0.016100
     28 H2           4.1870    -0.0150     2.9300 h4         1 5N3       0.164000
     29 H3          -2.8550    -1.6000     2.1430 hc         1 5N3       0.015700
     30 H4          -3.6860    -1.4570     0.5880 hc         1 5N3       0.015700
     31 H5          -2.0490    -2.1230     0.6580 hc         1 5N3       0.015700
     32 H6           4.6420    -0.0060     5.4620 hn         1 5N3       0.146700
     33 H7           1.6080    -0.0340    -2.0650 hn         1 5N3       0.291800
     34 H8           3.1360     0.0020    -4.1130 ha         1 5N3       0.097000
     35 H9           5.0320     0.0050    -5.6570 ha         1 5N3       0.111000
     36 H10          7.3410     0.0040    -4.8030 ha         1 5N3       0.114000
     37 H11          6.3800     0.0020     0.1450 hn         1 5N3       0.156700
     38 H12         -0.7610     0.6970    -1.8720 h1         1 5N3       0.007200
     39 H13         -1.1550    -0.9980    -1.4970 h1         1 5N3       0.007200
     40 H14         -3.9220     1.0310     1.5590 hc         1 5N3       0.015700
     41 H15         -2.4390     1.9850     1.7020 hc         1 5N3       0.015700
     42 H16         -2.7670     0.6800     2.8520 hc         1 5N3       0.015700
     43 C1          -2.7270    -1.3950     1.0870 c3         1 5N3      -0.004600
@<TRIPOS>BOND
     1     1     3 ar  
     2     1     7 ar  
     3     1    24 1   
     4     2     5 1   
     5     2    12 2   
     6     2    27 1   
     7     3     9 ar  
     8     3    13 1   
     9     4     5 1   
    10     4     9 ar  
    11     4    10 ar  
    12     5     6 2   
    13     6    11 1   
    14     6    28 1   
    15     7     8 1   
    16     7    10 ar  
    17     8    25 1   
    18     8    26 1   
    19     8    43 1   
    20    11    12 1   
    21    11    32 1   
    22    13    14 1   
    23    13    33 1   
    24    14    15 1   
    25    14    22 2   
    26    15    16 ar  
    27    15    20 ar  
    28    16    17 ar  
    29    16    34 1   
    30    17    18 ar  
    31    17    35 1   
    32    18    19 ar  
    33    18    36 1   
    34    19    20 ar  
    35    19    23 1   
    36    20    21 1   
    37    21    22 1   
    38    21    37 1   
    39    24    25 1   
    40    24    38 1   
    41    24    39 1   
    42    26    40 1   
    43    26    41 1   
    44    26    42 1   
    45    29    43 1   
    46    30    43 1   
    47    31    43 1   
@<TRIPOS>SUBSTRUCTURE
     1 5N3         1 TEMP              0 ****  ****    0 ROOT
