@<TRIPOS>MOLECULE
5N4
   46    50     1     0     0
SMALL
bcc


@<TRIPOS>ATOM
      1 C4           0.0000     0.0000     0.0000 ca         1 5N4      -0.466900
      2 C14          4.4410    -0.0090     2.6470 c3         1 5N4      -0.008400
      3 C5           1.3920     0.0000     0.0000 ca         1 5N4       0.547200
      4 C11          2.6040    -0.0020     5.7600 cc         1 5N4       0.375200
      5 C7           1.3550    -0.0000     2.3090 ca         1 5N4       0.727500
      6 C9           2.0990     0.0010     3.5860 cd         1 5N4      -0.308800
      7 C10          1.5560     0.0010     4.8410 cc         1 5N4      -0.288300
      8 C3          -0.6680     0.0070     1.2120 ca         1 5N4       0.420600
      9 C2          -2.1470     0.0110     0.9070 c3         1 5N4       0.111500
     10 N6           2.0320     0.0000     1.1660 nb         1 5N4      -0.646000
     11 N8           0.0270     0.0080     2.3350 nb         1 5N4      -0.605000
     12 N12          3.7360    -0.0030     5.1040 nd         1 5N4      -0.652800
     13 N13          3.4560    -0.0070     3.7310 na         1 5N4       0.530400
     14 N15          2.0990     0.0000    -1.1930 nu         1 5N4      -0.323900
     15 C16          3.4970    -0.0010    -1.1760 cc         1 5N4       0.460800
     16 C17          4.3740    -0.0010    -2.3490 ca         1 5N4      -0.273900
     17 C18          4.1510    -0.0000    -3.7280 ca         1 5N4      -0.018000
     18 C19          5.2150    -0.0020    -4.5850 ca         1 5N4      -0.146000
     19 C20          6.5150    -0.0020    -4.0970 ca         1 5N4      -0.048000
     20 C21          6.7590    -0.0020    -2.7520 ca         1 5N4      -0.123000
     21 C22          5.6930    -0.0010    -1.8550 ca         1 5N4      -0.163200
     22 N23          5.6040    -0.0010    -0.4880 na         1 5N4       0.410900
     23 N25          4.2570     0.0050    -0.1140 nd         1 5N4      -0.648100
     24 C26         -1.0410     0.0000    -1.0900 c3         1 5N4       0.299700
     25 O27         -2.2680     0.4240    -0.4670 os         1 5N4      -0.383600
     26 C28         -2.8710     1.0010     1.8220 c3         1 5N4      -0.005100
     27 H1           5.4400    -0.0140     3.0660 h1         1 5N4       0.035700
     28 H2           4.3020    -0.8920     2.0350 h1         1 5N4       0.035700
     29 H3           4.3090     0.8770     2.0380 h1         1 5N4       0.035700
     30 H4           2.4990    -0.0000     6.8380 h4         1 5N4       0.002100
     31 H5           0.4990     0.0020     5.0780 ha         1 5N4       0.143000
     32 H6          -2.0480    -2.1220     0.6600 hc         1 5N4       0.016367
     33 H7          -2.8550    -1.5980     2.1440 hc         1 5N4       0.016367
     34 H8          -3.6860    -1.4560     0.5890 hc         1 5N4       0.016367
     35 H9           1.6080    -0.0210    -2.0650 hn         1 5N4       0.293800
     36 H10          3.1400     0.0000    -4.1170 ha         1 5N4       0.095000
     37 H11          5.0430    -0.0020    -5.6540 ha         1 5N4       0.108000
     38 H12          7.3470    -0.0030    -4.7910 ha         1 5N4       0.103000
     39 H13          7.7780    -0.0030    -2.3850 ha         1 5N4       0.107000
     40 H14          6.3810     0.0010     0.1430 hn         1 5N4       0.155700
     41 H15         -1.1550    -0.9980    -1.4950 h1         1 5N4       0.008700
     42 H16         -0.7600     0.6970    -1.8710 h1         1 5N4       0.008700
     43 H17         -2.4370     1.9860     1.7040 hc         1 5N4       0.016367
     44 H18         -3.9210     1.0350     1.5580 hc         1 5N4       0.016367
     45 H19         -2.7680     0.6820     2.8520 hc         1 5N4       0.016367
     46 C1          -2.7260    -1.3940     1.0880 c3         1 5N4      -0.005100
@<TRIPOS>BOND
     1     1     3 ar  
     2     1     8 ar  
     3     1    24 1   
     4     2    13 1   
     5     2    27 1   
     6     2    28 1   
     7     2    29 1   
     8     3    10 ar  
     9     3    14 1   
    10     4     7 1   
    11     4    12 2   
    12     4    30 1   
    13     5     6 1   
    14     5    10 ar  
    15     5    11 ar  
    16     6     7 2   
    17     6    13 1   
    18     7    31 1   
    19     8     9 1   
    20     8    11 ar  
    21     9    25 1   
    22     9    26 1   
    23     9    46 1   
    24    12    13 1   
    25    14    15 1   
    26    14    35 1   
    27    15    16 1   
    28    15    23 2   
    29    16    17 ar  
    30    16    21 ar  
    31    17    18 ar  
    32    17    36 1   
    33    18    19 ar  
    34    18    37 1   
    35    19    20 ar  
    36    19    38 1   
    37    20    21 ar  
    38    20    39 1   
    39    21    22 1   
    40    22    23 1   
    41    22    40 1   
    42    24    25 1   
    43    24    41 1   
    44    24    42 1   
    45    26    43 1   
    46    26    44 1   
    47    26    45 1   
    48    32    46 1   
    49    33    46 1   
    50    34    46 1   
@<TRIPOS>SUBSTRUCTURE
     1 5N4         1 TEMP              0 ****  ****    0 ROOT
