@<TRIPOS>MOLECULE
molecule
   46    50     1     0     0
SMALL
bcc


@<TRIPOS>ATOM
      1 C4           0.0000     0.0000     0.0000 ca         1 5N4      -0.451900
      2 C14          4.4410    -0.0090     2.6470 c3         1 5N4       0.068600
      3 C5           1.3920     0.0000     0.0000 ca         1 5N4       0.746200
      4 C11          2.6040    -0.0020     5.7600 cc         1 5N4       0.316200
      5 C7           1.3550    -0.0000     2.3090 ca         1 5N4       0.809500
      6 C9           2.0990     0.0010     3.5860 cd         1 5N4      -0.130800
      7 C10          1.5560     0.0010     4.8410 cc         1 5N4      -0.295300
      8 C3          -0.6680     0.0070     1.2120 ca         1 5N4       0.479600
      9 C2          -2.1470     0.0110     0.9070 c3         1 5N4       0.092500
     10 N6           2.0320     0.0000     1.1660 nb         1 5N4      -0.761000
     11 N8           0.0270     0.0080     2.3350 nb         1 5N4      -0.736000
     12 N12          3.7360    -0.0030     5.1040 nd         1 5N4      -0.502800
     13 N13          3.4560    -0.0070     3.7310 na         1 5N4       0.091400
     14 N15          2.0990     0.0000    -1.1930 nu         1 5N4      -0.801900
     15 C16          3.4970    -0.0010    -1.1760 cd         1 5N4       0.592800
     16 C17          4.3740    -0.0010    -2.3490 ca         1 5N4      -0.265900
     17 C18          4.1510    -0.0000    -3.7280 ca         1 5N4      -0.055000
     18 C19          5.2150    -0.0020    -4.5850 ca         1 5N4      -0.171000
     19 C20          6.5150    -0.0020    -4.0970 ca         1 5N4      -0.076000
     20 C21          6.7590    -0.0020    -2.7520 ca         1 5N4      -0.161000
     21 C22          5.6930    -0.0010    -1.8550 ca         1 5N4      -0.000200
     22 N23          5.6040    -0.0010    -0.4880 na         1 5N4      -0.057100
     23 N25          4.2570     0.0050    -0.1140 nc         1 5N4      -0.512100
     24 C26         -1.0410     0.0000    -1.0900 c3         1 5N4       0.189700
     25 O27         -2.2680     0.4240    -0.4670 os         1 5N4      -0.385600
     26 C28         -2.8710     1.0010     1.8220 c3         1 5N4      -0.089100
     27 H1           5.4400    -0.0140     3.0660 h1         1 5N4       0.063033
     28 H2           4.3020    -0.8920     2.0350 h1         1 5N4       0.063033
     29 H3           4.3090     0.8770     2.0380 h1         1 5N4       0.063033
     30 H4           2.4990    -0.0000     6.8380 h4         1 5N4       0.047100
     31 H5           0.4990     0.0020     5.0780 ha         1 5N4       0.168000
     32 H6          -2.0480    -2.1220     0.6600 hc         1 5N4       0.051367
     33 H7          -2.8550    -1.5980     2.1440 hc         1 5N4       0.051367
     34 H8          -3.6860    -1.4560     0.5890 hc         1 5N4       0.051367
     35 H9           1.6080    -0.0210    -2.0650 hn         1 5N4       0.473800
     36 H10          3.1400     0.0000    -4.1170 ha         1 5N4       0.125000
     37 H11          5.0430    -0.0020    -5.6540 ha         1 5N4       0.134000
     38 H12          7.3470    -0.0030    -4.7910 ha         1 5N4       0.135000
     39 H13          7.7780    -0.0030    -2.3850 ha         1 5N4       0.134000
     40 H14          6.3810     0.0010     0.1430 hn         1 5N4       0.334700
     41 H15         -1.1550    -0.9980    -1.4950 h1         1 5N4       0.053700
     42 H16         -0.7600     0.6970    -1.8710 h1         1 5N4       0.053700
     43 H17         -2.4370     1.9860     1.7040 hc         1 5N4       0.051367
     44 H18         -3.9210     1.0350     1.5580 hc         1 5N4       0.051367
     45 H19         -2.7680     0.6820     2.8520 hc         1 5N4       0.051367
     46 C1          -2.7260    -1.3940     1.0880 c3         1 5N4      -0.089100
@<TRIPOS>BOND
     1    20    21 ar
     2    20    19 ar
     3    22    21 1
     4    22    23 1
     5    21    16 ar
     6    19    18 ar
     7    23    15 2
     8    16    15 1
     9    16    17 ar
    10    18    17 ar
    11    15    14 1
    12    14     3 1
    13     3    10 ar
    14     3     1 ar
    15    10     5 ar
    16     7     4 1
    17     7     6 2
    18     4    12 2
    19     1    24 1
    20     1     8 ar
    21     5     6 1
    22     5    11 ar
    23    24    25 1
    24     6    13 1
    25    12    13 1
    26     8    11 ar
    27     8     9 1
    28    13     2 1
    29    25     9 1
    30     9    46 1
    31     9    26 1
    32     2    27 1
    33     2    28 1
    34     2    29 1
    35     4    30 1
    36     7    31 1
    37    46    32 1
    38    46    33 1
    39    46    34 1
    40    14    35 1
    41    17    36 1
    42    18    37 1
    43    19    38 1
    44    20    39 1
    45    22    40 1
    46    24    41 1
    47    24    42 1
    48    26    43 1
    49    26    44 1
    50    26    45 1
@<TRIPOS>SUBSTRUCTURE
     1 5N4         1 TEMP              0 ****  ****    0 ROOT
