@<TRIPOS>MOLECULE
molecule
   34    36     1     0     0
SMALL
bcc


@<TRIPOS>ATOM
      1 O2'          0.0000     0.0000     0.0000 oh         1 5N5      -0.536800
      2 C2'          1.4290     0.0000     0.0000 c3         1 5N5       0.103100
      3 C3'          1.9820     0.0000     1.4460 c3         1 5N5       0.094100
      4 O3'          0.9880     0.4670     2.3620 oh         1 5N5      -0.553800
      5 C4'          3.1710     0.9780     1.3960 c3         1 5N5       0.091100
      6 C5'          4.4540     0.2600     1.8220 c3         1 5N5       0.094800
      7 N5'          5.5580     1.2270     1.8860 nz         1 5N5      -0.806600
      8 O4'          3.2940     1.4330     0.0370 os         1 5N5      -0.445600
      9 C1'          1.9820     1.3360    -0.5590 c3         1 5N5       0.279800
     10 N9           2.0830     1.2800    -2.0190 na         1 5N5      -0.269000
     11 C8           3.1930     0.9520    -2.7390 cc         1 5N5       0.394700
     12 N7           2.9290     1.0050    -4.0130 nd         1 5N5      -0.553100
     13 C5           1.6360     1.3700    -4.1900 ca         1 5N5      -0.219200
     14 C4           1.0760     1.5440    -2.9130 ca         1 5N5       0.490800
     15 N3          -0.1990     1.9070    -2.8110 nb         1 5N5      -0.797000
     16 C2          -0.9290     2.1010    -3.8880 ca         1 5N5       0.763900
     17 N1          -0.4480     1.9480    -5.1080 nb         1 5N5      -0.823000
     18 C6           0.8140     1.5830    -5.3100 ca         1 5N5       0.799200
     19 N6           1.3080     1.4200    -6.5930 nv         1 5N5      -0.970500
     20 H1          -0.3140    -0.8800    -0.1260 ho         1 5N5       0.421000
     21 H2           1.8210    -0.8410    -0.5590 h1         1 5N5       0.068700
     22 H3           2.3210    -0.9920     1.7200 h1         1 5N5       0.051700
     23 H4           0.8480    -0.1810     3.0320 ho         1 5N5       0.422000
     24 H5           2.9800     1.8210     2.0490 h1         1 5N5       0.095700
     25 H6           4.3100    -0.1880     2.7980 hx         1 5N5       0.116700
     26 H7           4.6920    -0.5120     1.1010 hx         1 5N5       0.116700
     27 H8           5.3350     1.9440     2.5470 hn         1 5N5       0.462800
     28 H9           6.3950     0.7590     2.1710 hn         1 5N5       0.462800
     29 H11          1.3600     2.1650    -0.2440 h2         1 5N5       0.129700
     30 H12          4.1540     0.6870    -2.3150 h5         1 5N5       0.066800
     31 H13         -1.9640     2.3990    -3.7690 h5         1 5N5       0.073100
     32 H14          0.7120     1.5740    -7.3810 hn         1 5N5       0.457300
     33 H15          2.2610     1.1480    -6.7310 hn         1 5N5       0.457300
     34 H5'3         5.7030     1.6270     0.9800 hn         1 5N5       0.462800
@<TRIPOS>BOND
     1    19    18 1   
     2    12    13 1   
     3    12    11 2   
     4    18    13 ar  
     5    18    17 ar  
     6    13    14 ar  
     7    11    10 1   
     8     2     1 1   
     9     2     3 1   
    10     2     9 1   
    11    17    16 ar  
    12     4     3 1   
    13     3     5 1   
    14    14    10 1   
    15    14    15 ar  
    16    10     9 1   
    17    16    15 ar  
    18     9     8 1   
    19     5     8 1   
    20     5     6 1   
    21     6     7 1   
    22     1    20 1   
    23     2    21 1   
    24     3    22 1   
    25     4    23 1   
    26     5    24 1   
    27     6    25 1   
    28     6    26 1   
    29     7    27 1   
    30     7    28 1   
    31     9    29 1   
    32    11    30 1   
    33    16    31 1   
    34    19    32 1   
    35    19    33 1   
    36    34     7 1   
@<TRIPOS>SUBSTRUCTURE
     1 5N5         1 TEMP              0 ****  ****    0 ROOT
