@<TRIPOS>MOLECULE
molecule
   53    57     1     0     0
SMALL
bcc


@<TRIPOS>ATOM
      1 C1           0.0000     0.0000     0.0000 c3         1 5N8      -0.086100
      2 C2           1.5300     0.0000     0.0000 c3         1 5N8       0.108700
      3 C3           2.0420     0.0000     1.4450 c3         1 5N8       0.013300
      4 N6          -0.2220    -6.3320    -4.1530 nc         1 5N8      -0.403300
      5 C7           3.4770    -1.3580    -0.8670 c3         1 5N8       0.070700
      6 C9           1.6820    -3.3910    -1.7350 ca         1 5N8      -0.154600
      7 C10          2.8900    -3.3860    -2.4360 ca         1 5N8      -0.109000
      8 C11          3.3680    -4.5570    -2.9880 ca         1 5N8      -0.134000
      9 C12          2.6540    -5.7340    -2.8490 ca         1 5N8      -0.060000
     10 C13          1.4570    -5.7450    -2.1550 ca         1 5N8      -0.150300
     11 C14          0.9700    -4.5830    -1.5920 ca         1 5N8      -0.029000
     12 C15          0.6860    -7.0320    -2.0070 c3         1 5N8       0.457600
     13 C16         -0.2100    -7.2200    -3.2050 cd         1 5N8       0.333900
     14 C19         -1.9130   -10.4710    -2.4350 ca         1 5N8      -0.100000
     15 C20         -2.7270   -10.6130    -3.5510 ca         1 5N8      -0.125000
     16 C21         -2.7270    -9.6620    -4.5470 ca         1 5N8      -0.065000
     17 C22         -1.8980    -8.5470    -4.4330 ca         1 5N8      -0.132600
     18 F5           1.5810    -8.1040    -1.9230 f          1 5N8      -0.217300
     19 F4          -0.0910    -6.9800    -0.8460 f          1 5N8      -0.217300
     20 N5          -1.0300    -6.4480    -5.2850 ns         1 5N8      -0.302900
     21 C23         -1.8550    -7.5010    -5.4630 c          1 5N8       0.686100
     22 O2          -2.5500    -7.5820    -6.4590 o          1 5N8      -0.620500
     23 C18         -1.0870    -9.3780    -2.3000 ca         1 5N8      -0.109000
     24 C17         -1.0690    -8.4010    -3.2970 ca         1 5N8      -0.134900
     25 O1          -0.0350    -1.9580    -1.0610 o          1 5N8      -0.592100
     26 N4           2.0200    -1.2040    -0.6880 n          1 5N8      -0.499800
     27 C4           4.1250    -0.9550     0.4360 cd         1 5N8       0.361800
     28 N2           5.3580    -1.1070     0.8080 nc         1 5N8      -0.341000
     29 N3           5.5120    -0.6210     1.9930 nc         1 5N8      -0.295000
     30 C5           4.3730    -0.1410     2.4240 cd         1 5N8       0.265800
     31 C6           4.1270     0.5150     3.7580 c3         1 5N8       0.627600
     32 F3           3.4350    -0.3700     4.5920 f          1 5N8      -0.207300
     33 F2           5.3510     0.8510     4.3470 f          1 5N8      -0.207300
     34 F1           3.3650     1.6740     3.5740 f          1 5N8      -0.207300
     35 N1           3.4630    -0.3440     1.4520 na         1 5N8      -0.288700
     36 H1          -0.3610    -0.0080    -1.0210 hc         1 5N8       0.059033
     37 H2          -0.3610     0.8890     0.5030 hc         1 5N8       0.059033
     38 H3          -0.3610    -0.8800     0.5180 hc         1 5N8       0.059033
     39 H4           1.8960     0.8810    -0.5120 h1         1 5N8       0.065700
     40 H5           1.9080     0.9850     1.8750 h1         1 5N8       0.083700
     41 H6           1.4910    -0.7320     2.0230 h1         1 5N8       0.083700
     42 H7           3.7130    -2.3900    -1.0930 h1         1 5N8       0.095200
     43 H8           3.8200    -0.7100    -1.6650 h1         1 5N8       0.095200
     44 H9           3.4500    -2.4660    -2.5460 ha         1 5N8       0.148000
     45 H10          4.3050    -4.5540    -3.5320 ha         1 5N8       0.144000
     46 H11          3.0330    -6.6490    -3.2860 ha         1 5N8       0.149000
     47 H12          0.0330    -4.5940    -1.0490 ha         1 5N8       0.166000
     48 H13         -1.9270   -11.2290    -1.6610 ha         1 5N8       0.140000
     49 H14         -3.3700   -11.4810    -3.6380 ha         1 5N8       0.141000
     50 H15         -3.3650    -9.7800    -5.4150 ha         1 5N8       0.162000
     51 H16         -0.9960    -5.7320    -5.9830 hn         1 5N8       0.373500
     52 H17         -0.4560    -9.2760    -1.4260 ha         1 5N8       0.151000
     53 C8           1.1640    -2.1420    -1.1410 c          1 5N8       0.689700
@<TRIPOS>BOND
     1    15    14 ar
     2    15    16 ar
     3    14    23 ar
     4    16    17 ar
     5    25    53 2
     6    23    24 ar
     7     7     8 ar
     8     7     6 ar
     9     8     9 ar
    10    17    24 ar
    11    17    21 1
    12    53     6 1
    13    53    26 1
    14     5    26 1
    15     5    27 1
    16     6    11 ar
    17    24    13 1
    18     9    10 ar
    19    26     2 1
    20    22    21 2
    21    11    10 ar
    22    21    20 1
    23    10    12 1
    24    28    27 2
    25    28    29 1
    26    27    35 1
    27     1     2 1
    28    13    12 1
    29    13     4 2
    30     2     3 1
    31    12    18 1
    32    12    19 1
    33    20     4 1
    34    35     3 1
    35    35    30 1
    36    29    30 2
    37    30    31 1
    38    31    33 1
    39    31    32 1
    40    31    34 1
    41     1    36 1
    42     1    37 1
    43     1    38 1
    44     2    39 1
    45     3    40 1
    46     3    41 1
    47     5    42 1
    48     5    43 1
    49     7    44 1
    50     8    45 1
    51     9    46 1
    52    11    47 1
    53    14    48 1
    54    15    49 1
    55    16    50 1
    56    20    51 1
    57    23    52 1
@<TRIPOS>SUBSTRUCTURE
     1 5N8         1 TEMP              0 ****  ****    0 ROOT
