@<TRIPOS>MOLECULE
5NA
   24    25     1     0     0
SMALL
bcc


@<TRIPOS>ATOM
      1 C1A        -0.0230   -0.1110    0.0190 ca        1 5NA     -0.167000
      2 C1B         1.3900   -0.1190   -0.0210 ca        1 5NA     -0.147000
      3 C1C         2.1220   -0.0630    1.1440 ca        1 5NA     -0.085300
      4 C1D         1.4520    0.0070    2.4050 ca        1 5NA     -0.073000
      5 C1E         0.0290    0.0180    2.4500 ca        1 5NA      0.019000
      6 C1F        -0.6870   -0.0450    1.2170 ca        1 5NA     -0.089000
      7 C1G         2.1780    0.0670    3.6240 ca        1 5NA     -0.129000
      8 C1H         1.5280    0.1570    4.8260 ca        1 5NA     -0.157000
      9 C1I         0.1050    0.1900    4.8630 ca        1 5NA      0.151100
     10 C1J        -0.6510    0.1010    3.6980 ca        1 5NA     -0.191600
     11 O1K        -0.4170    0.2980    6.1260 oh        1 5NA     -0.550100
     12 C1L        -2.1680    0.1040    3.7900 c         1 5NA      0.914200
     13 O1M        -2.6920    0.8140    4.7050 o         1 5NA     -0.829800
     14 O1N        -2.8530   -0.6000    3.0000 o         1 5NA     -0.829800
     15 C1O         3.6040   -0.0740    1.0920 c3        1 5NA     -0.040800
     16 H1A        -0.5820   -0.1600   -0.9260 ha        1 5NA      0.113000
     17 H1B         1.8950   -0.1720   -0.9960 ha        1 5NA      0.106000
     18 H1F        -1.7920   -0.0580    1.2600 ha        1 5NA      0.188000
     19 H1G         3.2770    0.0440    3.5960 ha        1 5NA      0.110000
     20 H1H         2.0780    0.2100    5.7760 ha        1 5NA      0.126000
     21 HO1K       -1.3830    0.4490    6.0590 ho        1 5NA      0.476000
     22 H1O         4.0180    0.8540    1.5600 hc        1 5NA      0.029033
     23 H1OA        4.0070   -0.9570    1.6480 hc        1 5NA      0.029033
     24 H1OB        3.9710   -0.1270    0.0380 hc        1 5NA      0.029033
@<TRIPOS>BOND
     1    1    2 ar  
     2    1    6 ar  
     3    1   16 1   
     4    2    3 ar  
     5    2   17 1   
     6    3    4 ar  
     7    3   15 1   
     8    4    5 ar  
     9    4    7 ar  
    10    5    6 ar  
    11    5   10 ar  
    12    6   18 1   
    13    7    8 ar  
    14    7   19 1   
    15    8    9 ar  
    16    8   20 1   
    17    9   10 ar  
    18    9   11 1   
    19   10   12 1   
    20   11   21 1   
    21   12   13 1   
    22   12   14 1   
    23   15   22 1   
    24   15   23 1   
    25   15   24 1   
@<TRIPOS>SUBSTRUCTURE
     1 5NA         1 TEMP              0 ****  ****    0 ROOT
