@<TRIPOS>MOLECULE
molecule
   24    25     1     0     0
SMALL
bcc


@<TRIPOS>ATOM
      1 C1A          0.0000     0.0000     0.0000 ca         1 5NA      -0.166000
      2 C1B          1.3920     0.0000     0.0000 ca         1 5NA      -0.134000
      3 C1C          2.0930     0.0000     1.1680 ca         1 5NA      -0.097300
      4 C1D          1.4050     0.0020     2.3920 ca         1 5NA      -0.037000
      5 C1E         -0.0110     0.0020     2.3880 ca         1 5NA      -0.017000
      6 C1F         -0.7000     0.0070     1.1700 ca         1 5NA      -0.067000
      7 C1G          2.0950     0.0010     3.6180 ca         1 5NA      -0.155000
      8 C1H          1.4210     0.0000     4.7970 ca         1 5NA      -0.152000
      9 C1I          0.0260     0.0010     4.8450 ca         1 5NA       0.076100
     10 C1J         -0.7220     0.0040     3.6670 ca         1 5NA      -0.047600
     11 O1K         -0.6050    -0.0000     6.0440 oh         1 5NA      -0.493100
     12 C1L         -2.1900     0.0040     3.7090 c          1 5NA       0.889200
     13 O1M         -2.7970     1.0570     3.7290 o          1 5NA      -0.826300
     14 O1N         -2.8650    -1.1630     3.7260 o          1 5NA      -0.826300
     15 C1O          3.6000    -0.0010     1.1470 c3         1 5NA      -0.038800
     16 H1A         -0.5340    -0.0000    -0.9420 ha         1 5NA       0.114000
     17 H1B          1.9250    -0.0050    -0.9430 ha         1 5NA       0.106000
     18 H1F         -1.7840     0.0070     1.1570 ha         1 5NA       0.165000
     19 H1G          3.1790     0.0010     3.6210 ha         1 5NA       0.110000
     20 H1H          1.9810    -0.0020     5.7250 ha         1 5NA       0.109000
     21 HO1K        -0.3730     0.7780     6.5230 ho         1 5NA       0.396000
     22 H1O          3.9470    -0.0020     0.1200 hc         1 5NA       0.031700
     23 H1OA         3.9670    -0.8860     1.6520 hc         1 5NA       0.031700
     24 H1OB         3.9690     0.8830     1.6520 hc         1 5NA       0.031700
@<TRIPOS>BOND
     1     2     1 ar  
     2     6     1 ar  
     3     1    16 1   
     4     3     2 ar  
     5     2    17 1   
     6    15     3 1   
     7     4     3 ar  
     8     7     4 ar  
     9     4     5 ar  
    10    10     5 ar  
    11     5     6 ar  
    12     6    18 1   
    13     8     7 ar  
    14     7    19 1   
    15     8     9 ar  
    16     8    20 1   
    17    11     9 1   
    18     9    10 ar  
    19    10    12 1   
    20    11    21 1   
    21    13    12 1   
    22    12    14 1   
    23    15    22 1   
    24    15    23 1   
    25    15    24 1   
@<TRIPOS>SUBSTRUCTURE
     1 5NA         1 TEMP              0 ****  ****    0 ROOT
