@<TRIPOS>MOLECULE
molecule
   34    36     1     0     0
SMALL
bcc


@<TRIPOS>ATOM
      1 O2'          0.0000     0.0000     0.0000 oh         1 5NB      -0.551800
      2 C2'          1.4300     0.0000     0.0000 c3         1 5NB       0.096100
      3 C3'          1.9710     0.0000     1.4460 c3         1 5NB       0.109100
      4 O3'          0.8930    -0.0010     2.3850 oh         1 5NB      -0.562800
      5 C4'          2.7750     1.3140     1.5460 c3         1 5NB       0.093100
      6 C5'          4.0290     1.1080     2.3990 c3         1 5NB       0.103800
      7 N5'          4.7150     2.3950     2.5810 nz         1 5NB      -0.807600
      8 O4'          3.1390     1.6300     0.1850 os         1 5NB      -0.431600
      9 C1'          1.9700     1.3150    -0.6030 c3         1 5NB       0.259800
     10 N9           2.3400     1.1180    -2.0070 na         1 5NB      -0.252000
     11 C8           3.4470     0.4690    -2.4670 cc         1 5NB       0.353800
     12 Br8          4.7670    -0.3330    -1.3740 br         1 5NB       0.006700
     13 N7           3.4610     0.4820    -3.7690 nd         1 5NB      -0.512100
     14 C5           2.3680     1.1390    -4.2250 ca         1 5NB      -0.221200
     15 C4           1.6320     1.5500    -3.1010 ca         1 5NB       0.500800
     16 N3           0.5000     2.2230    -3.2800 nb         1 5NB      -0.806000
     17 C2           0.0720     2.5030    -4.4930 ca         1 5NB       0.772900
     18 N1           0.7280     2.1380    -5.5790 nb         1 5NB      -0.822000
     19 C6           1.8670     1.4570    -5.4990 ca         1 5NB       0.805200
     20 N6           2.5470     1.0780    -6.6430 nv         1 5NB      -0.964500
     21 H1          -0.3140    -0.8160    -0.3520 ho         1 5NB       0.426000
     22 H2           1.8150    -0.8520    -0.5470 h1         1 5NB       0.077700
     23 H3           2.6210    -0.8520     1.6050 h1         1 5NB       0.057700
     24 H4           0.8760    -0.8250     2.8430 ho         1 5NB       0.423000
     25 H5           2.1560     2.1010     1.9600 h1         1 5NB       0.093700
     26 H6           3.7460     0.7100     3.3660 hx         1 5NB       0.119200
     27 H7           4.6930     0.4120     1.9020 hx         1 5NB       0.119200
     28 H8           5.4180     2.3010     3.2870 hn         1 5NB       0.462133
     29 H9           4.0520     3.0900     2.8620 hn         1 5NB       0.462133
     30 H11          1.2310     2.1020    -0.5090 h2         1 5NB       0.130700
     31 H12         -0.8530     3.0570    -4.6040 h5         1 5NB       0.076100
     32 H13          3.3620     0.5020    -6.5720 hn         1 5NB       0.460300
     33 H14          2.2080     1.3570    -7.5420 hn         1 5NB       0.460300
     34 H5'3         5.1390     2.6720     1.7180 hn         1 5NB       0.462133
@<TRIPOS>BOND
     1    20    19 1
     2    19    18 ar
     3    19    14 ar
     4    18    17 ar
     5    13    14 1
     6    13    11 2
     7    14    15 ar
     8    17    16 ar
     9    11    12 1
    10    11    10 1
    11    15    16 ar
    12    15    10 1
    13     1     2 1
    14    10     9 1
    15     2     9 1
    16     2     3 1
    17     9     8 1
    18     3     4 1
    19     3     5 1
    20     8     5 1
    21     5     6 1
    22     6     7 1
    23     1    21 1
    24     2    22 1
    25     3    23 1
    26     4    24 1
    27     5    25 1
    28     6    26 1
    29     6    27 1
    30     7    28 1
    31     7    29 1
    32     9    30 1
    33    17    31 1
    34    20    32 1
    35    20    33 1
    36    34     7 1
@<TRIPOS>SUBSTRUCTURE
     1 5NB         1 TEMP              0 ****  ****    0 ROOT
