@<TRIPOS>MOLECULE
5ND
   30    32     1     0     0
SMALL
bcc


@<TRIPOS>ATOM
      1 N10          0.0000     0.0000     0.0000 ns         1 5ND      -0.208900
      2 CA           1.4740     0.0000     0.0000 c3         1 5ND      -0.086300
      3 CB           2.0120    -1.2590    -0.6830 c3         1 5ND       0.034900
      4 CG           1.6260    -1.2430    -2.1400 ca         1 5ND      -0.105300
      5 CD1          2.4800    -0.6500    -3.0690 ca         1 5ND      -0.098000
      6 CE1          2.1620    -0.6190    -4.3920 ca         1 5ND      -0.077000
      7 CZ           0.9560    -1.1910    -4.8310 ca         1 5ND      -0.036000
      8 CE2          0.0880    -1.7930    -3.8860 ca         1 5ND      -0.033000
      9 CD2          0.4530    -1.8100    -2.5290 ca         1 5ND      -0.093000
     10 C            1.8290     0.0000     1.4740 c          1 5ND       0.612500
     11 N11          0.6540    -0.0000     2.1330 ns         1 5ND      -0.162500
     12 C2          -0.3850     0.0000     1.2890 c          1 5ND       0.603500
     13 O2          -1.5460     0.0000     1.6480 o          1 5ND      -0.694500
     14 O3           2.9410    -0.0000     1.9590 o          1 5ND      -0.613500
     15 C1          -1.1170    -2.3650    -4.3260 ca         1 5ND      -0.089000
     16 C3          -1.4350    -2.3340    -5.6480 ca         1 5ND      -0.094000
     17 C5          -0.5820    -1.7420    -6.5780 ca         1 5ND      -0.096000
     18 C6           0.5930    -1.1770    -6.1890 ca         1 5ND      -0.087000
     19 H10         -0.5980     0.0000    -0.8030 hn         1 5ND       0.229500
     20 HA           1.8520     0.8940    -0.4810 h1         1 5ND       0.062700
     21 HB1C         3.0910    -1.2840    -0.5950 hc         1 5ND       0.035700
     22 HB2C         1.5900    -2.1360    -0.2080 hc         1 5ND       0.035700
     23 HD1          3.4110    -0.2100    -2.7330 ha         1 5ND       0.108000
     24 HD2         -0.1430    -2.3660    -1.8150 ha         1 5ND       0.114000
     25 HE1          2.8350    -0.1550    -5.1030 ha         1 5ND       0.109000
     26 H6           1.2470    -0.7210    -6.9230 ha         1 5ND       0.107000
     27 H1          -1.7910    -2.8290    -3.6150 ha         1 5ND       0.108000
     28 H11          0.5680    -0.0000     3.1310 hn         1 5ND       0.207500
     29 H3          -2.3650    -2.7770    -5.9840 ha         1 5ND       0.103000
     30 H5          -0.8580    -1.7300    -7.6250 ha         1 5ND       0.103000
@<TRIPOS>BOND
     1     1     2 1   
     2     1    12 1   
     3     1    19 1   
     4     2     3 1   
     5     2    10 1   
     6     2    20 1   
     7     3     4 1   
     8     3    21 1   
     9     3    22 1   
    10     4     5 ar  
    11     4     9 ar  
    12     5     6 ar  
    13     5    23 1   
    14     6     7 ar  
    15     6    25 1   
    16     7     8 ar  
    17     7    18 ar  
    18     8     9 ar  
    19     8    15 ar  
    20     9    24 1   
    21    10    11 1   
    22    10    14 2   
    23    11    12 1   
    24    11    28 1   
    25    12    13 2   
    26    15    16 ar  
    27    15    27 1   
    28    16    17 ar  
    29    16    29 1   
    30    17    18 ar  
    31    17    30 1   
    32    18    26 1   
@<TRIPOS>SUBSTRUCTURE
     1 5ND         1 TEMP              0 ****  ****    0 ROOT
