@<TRIPOS>MOLECULE
molecule
   23    24     1     0     0
SMALL
bcc


@<TRIPOS>ATOM
      1 O1N          0.0000     0.0000     0.0000 o          1 5NE      -0.833800
      2 C1L          1.2150     0.0000     0.0000 c          1 5NE       0.887200
      3 O1M          1.8890     0.0000     1.1680 o          1 5NE      -0.833800
      4 C1J          1.9510    -0.0080    -1.2760 ca         1 5NE      -0.073600
      5 C1E          1.2410    -0.1330    -2.5470 ca         1 5NE      -0.028000
      6 C1F         -0.1520    -0.2500    -2.5970 ca         1 5NE      -0.080000
      7 C1A         -0.7760    -0.3650    -3.8050 ca         1 5NE      -0.180000
      8 C1I          3.3360     0.1110    -1.2960 ca         1 5NE      -0.128000
      9 C1H          4.0270     0.1040    -2.4990 ca         1 5NE      -0.127000
     10 C1G          3.3880    -0.0160    -3.6940 ca         1 5NE      -0.162000
     11 C1D          1.9890    -0.1350    -3.7500 ca         1 5NE      -0.036000
     12 C1C          1.3130    -0.2560    -4.9770 ca         1 5NE      -0.108300
     13 C1O          2.0870    -0.2610    -6.2700 c3         1 5NE      -0.036800
     14 C1B         -0.0430    -0.3670    -4.9890 ca         1 5NE      -0.131000
     15 H2          -0.7320    -0.2490    -1.6820 ha         1 5NE       0.207000
     16 H3          -1.8550    -0.4550    -3.8430 ha         1 5NE       0.111000
     17 H4           3.8800     0.2090    -0.3640 ha         1 5NE       0.153000
     18 H5           5.1060     0.1980    -2.4870 ha         1 5NE       0.101000
     19 H6           3.9630    -0.0180    -4.6120 ha         1 5NE       0.106000
     20 H7           1.4000    -0.3620    -7.1010 hc         1 5NE       0.029700
     21 H8           2.7810    -1.0920    -6.2720 hc         1 5NE       0.029700
     22 H9           2.6360     0.6690    -6.3660 hc         1 5NE       0.029700
     23 H10         -0.5620    -0.4600    -5.9360 ha         1 5NE       0.102000
@<TRIPOS>BOND
     1    14     7 ar
     2    14    12 ar
     3     7     6 ar
     4    13    12 1
     5    12    11 ar
     6     6     5 ar
     7    11     5 ar
     8    11    10 ar
     9     5     4 ar
    10    10     9 ar
    11     4     2 1
    12     4     8 ar
    13     1     2 1
    14     2     3 1
    15     9     8 ar
    16     6    15 1
    17     7    16 1
    18     8    17 1
    19     9    18 1
    20    10    19 1
    21    13    20 1
    22    13    21 1
    23    13    22 1
    24    14    23 1
@<TRIPOS>SUBSTRUCTURE
     1 5NE         1 TEMP              0 ****  ****    0 ROOT
