@<TRIPOS>MOLECULE
molecule
   17    18     1     0     0
SMALL
bcc


@<TRIPOS>ATOM
      1 C6           0.0000     0.0000     0.0000 ca         1 5NI      -0.040000
      2 C7           1.3670     0.0000     0.0000 ca         1 5NI      -0.159000
      3 C8           2.0590     0.0000     1.2090 ca         1 5NI       0.007800
      4 C9           1.3390     0.0010     2.4180 ca         1 5NI      -0.269900
      5 C4          -0.0600     0.0060     2.3910 ca         1 5NI       0.015000
      6 C5          -0.7120     0.0000     1.1920 ca         1 5NI      -0.198200
      7 N1           3.3890    -0.0010     1.5400 na         1 5NI      -0.042100
      8 N2           3.5120    -0.0010     2.9330 nc         1 5NI      -0.488100
      9 C3           2.3330     0.0000     3.4870 cd         1 5NI       0.396800
     10 N10         -2.1920     0.0010     1.1630 no         1 5NI       0.300200
     11 O11         -2.7790    -0.0000     0.0960 o          1 5NI      -0.209500
     12 O12         -2.8220    -0.0040     2.2050 o          1 5NI      -0.209500
     13 H61         -0.5350    -0.0050    -0.9420 ha         1 5NI       0.169000
     14 H71          1.9100     0.0000    -0.9370 ha         1 5NI       0.147000
     15 H41         -0.6230     0.0060     3.3170 ha         1 5NI       0.168000
     16 HN11         4.1500    -0.0020     0.8900 hn         1 5NI       0.340700
     17 H31          2.1270     0.0000     4.5510 h4         1 5NI       0.072800
@<TRIPOS>BOND
     1     1     2 ar  
     2     1     6 ar  
     3     1    13 1   
     4     2     3 ar  
     5     2    14 1   
     6     3     4 ar  
     7     3     7 1   
     8     4     5 ar  
     9     4     9 1   
    10     5     6 ar  
    11     5    15 1   
    12     6    10 1   
    13     7     8 1   
    14     7    16 1   
    15     8     9 2   
    16     9    17 1   
    17    10    11 1   
    18    10    12 1   
@<TRIPOS>SUBSTRUCTURE
     1 5NI         1 TEMP              0 ****  ****    0 ROOT
