@<TRIPOS>MOLECULE
molecule
   38    38     1     0     0
SMALL
bcc


@<TRIPOS>ATOM
      1 OA           0.0000     0.0000     0.0000 o          1 5NJ      -0.871300
      2 CA           1.2090     0.0000     0.0000 c          1 5NJ       0.892600
      3 OB           1.8800     0.0000     1.1620 o          1 5NJ      -0.871300
      4 CB           1.9620    -0.0070    -1.3050 c3         1 5NJ      -0.171400
      5 CG           0.9680    -0.0130    -2.4680 c3         1 5NJ      -0.162400
      6 CD           1.7200    -0.0200    -3.7740 c          1 5NJ       0.563100
      7 OE           2.9290    -0.0210    -3.7740 o          1 5NJ      -0.561100
      8 CF           0.9670    -0.0270    -5.0780 c3         1 5NJ      -0.181400
      9 C4A          1.9620    -0.0330    -6.2410 c3         1 5NJ      -0.020100
     10 C4           1.2080    -0.0390    -7.5460 ca         1 5NJ      -0.088300
     11 C3           0.8460    -1.2380    -8.1550 ca         1 5NJ      -0.043200
     12 O3           1.1660    -2.4270    -7.5800 oh         1 5NJ      -0.524100
     13 C2           0.1530    -1.2010    -9.3550 ca         1 5NJ       0.345600
     14 C2A         -0.2470    -2.4900   -10.0250 c3         1 5NJ      -0.124400
     15 N1          -0.1610    -0.0500    -9.9160 nb         1 5NJ      -0.719000
     16 C6           0.1670     1.1030    -9.3670 ca         1 5NJ       0.440200
     17 C5           0.8540     1.1470    -8.1670 ca         1 5NJ      -0.151600
     18 C5A          1.2170     2.4700    -7.5450 c3         1 5NJ       0.248700
     19 O4P          0.7420     3.5330    -8.3750 os         1 5NJ      -0.583200
     20 P            0.9540     5.0880    -8.0150 p5         1 5NJ       1.172900
     21 O3P          2.3950     5.3530    -7.8070 o          1 5NJ      -0.905833
     22 O1P          0.4110     5.9980    -9.2280 o          1 5NJ      -0.905833
     23 O2P          0.1440     5.4440    -6.6700 o          1 5NJ      -0.905833
     24 H2           2.5850     0.8770    -1.3670 hc         1 5NJ       0.040200
     25 H3           2.5850    -0.8920    -1.3580 hc         1 5NJ       0.040200
     26 H4           0.3450     0.8720    -2.4150 hc         1 5NJ       0.069700
     27 H6           0.3440     0.8570    -5.1400 hc         1 5NJ       0.072200
     28 H7           2.5840    -0.9180    -6.1800 hc         1 5NJ       0.060200
     29 H8           1.9320    -2.7830    -8.0000 ho         1 5NJ       0.393000
     30 H9          -0.8690    -2.2720   -10.8850 hc         1 5NJ       0.029367
     31 H10          0.6410    -3.0200   -10.3470 hc         1 5NJ       0.029367
     32 H11         -0.8000    -3.1040    -9.3250 hc         1 5NJ       0.029367
     33 H12         -0.1110     2.0270    -9.8580 h4         1 5NJ       0.078100
     34 H13          2.2940     2.5410    -7.4490 h1         1 5NJ       0.042700
     35 H14          0.7620     2.5460    -6.5650 h1         1 5NJ       0.042700
     36 H17          0.3450    -0.8970    -2.4050 hc         1 5NJ       0.069700
     37 H5           0.3450    -0.9120    -5.1310 hc         1 5NJ       0.072200
     38 H18          2.5850     0.8510    -6.1880 hc         1 5NJ       0.060200
@<TRIPOS>BOND
     1     7     6 2   
     2     1     2 1   
     3     4     2 1   
     4     4     5 1   
     5     2     3 1   
     6     6     5 1   
     7     6     8 1   
     8    12    11 1   
     9     8     9 1   
    10     9    10 1   
    11    11    10 ar  
    12    11    13 ar  
    13    14    13 1   
    14    10    17 ar  
    15    13    15 ar  
    16    21    20 1   
    17    17    18 1   
    18    17    16 ar  
    19    15    16 ar  
    20    19    18 1   
    21    19    20 1   
    22    20    22 1   
    23    20    23 1   
    24     4    24 1   
    25     4    25 1   
    26     5    26 1   
    27     8    27 1   
    28     9    28 1   
    29    12    29 1   
    30    14    30 1   
    31    14    31 1   
    32    14    32 1   
    33    16    33 1   
    34    18    34 1   
    35    18    35 1   
    36     5    36 1   
    37     8    37 1   
    38     9    38 1   
@<TRIPOS>SUBSTRUCTURE
     1 5NJ         1 TEMP              0 ****  ****    0 ROOT
