@<TRIPOS>MOLECULE
molecule
   60    63     1     0     0
SMALL
bcc


@<TRIPOS>ATOM
      1 C10          0.0000     0.0000     0.0000 c3         1 5NK      -0.036800
      2 C15          6.5990     3.9700    -3.8170 ca         1 5NK      -0.209300
      3 C17          6.5360     2.1120    -2.3230 ca         1 5NK       0.019800
      4 C20          0.9580    -1.2990    -5.5130 c3         1 5NK      -0.094400
      5 C21         -0.3450    -1.1970    -6.3080 c3         1 5NK       0.160300
      6 C24          1.8100     0.6850    -6.7660 c3         1 5NK      -0.094400
      7 C01          1.5070     0.0000     0.0000 ca         1 5NK      -0.047300
      8 C02          2.1980     0.0000     1.1910 ca         1 5NK      -0.134000
      9 C03          3.5850    -0.0000     1.2000 ca         1 5NK      -0.123000
     10 C04          4.2920    -0.0010     0.0140 ca         1 5NK      -0.116000
     11 C05          2.2080    -0.0080    -1.2090 ca         1 5NK       0.121400
     12 C06          3.6120    -0.0030    -1.1940 ca         1 5NK      -0.087200
     13 N07          4.0110    -0.0040    -2.5210 na         1 5NK      -0.177300
     14 C08          2.8790    -0.0040    -3.2840 cc         1 5NK       0.672700
     15 N09          1.8220    -0.0150    -2.5120 nd         1 5NK      -0.685100
     16 C11          5.3920    -0.0040    -3.0130 c3         1 5NK       0.018000
     17 C12          5.8270     1.4120    -3.2880 ca         1 5NK       0.374600
     18 N13          5.5380     1.9690    -4.4470 nb         1 5NK      -0.680000
     19 C14          5.8930     3.2070    -4.7300 ca         1 5NK       0.405600
     20 C16          6.9330     3.4180    -2.5910 ca         1 5NK      -0.147000
     21 N18          2.8540    -0.0060    -4.6630 nu         1 5NK      -0.872200
     22 C19          1.5770     0.0950    -5.3720 c3         1 5NK       0.267500
     23 N22         -0.0690    -0.6270    -7.6320 n3         1 5NK      -0.764600
     24 C23          0.4800     0.7300    -7.5240 c3         1 5NK       0.160300
     25 C25         -1.2730    -0.6410    -8.4730 c3         1 5NK      -0.006200
     26 N27         -2.1020    -0.2940   -10.7520 nz         1 5NK      -0.807600
     27 H1          -0.3610    -0.8480    -0.5690 hc         1 5NK       0.042033
     28 H2          -0.3610    -0.0690     1.0190 hc         1 5NK       0.042033
     29 H3          -0.3610     0.9170    -0.4500 hc         1 5NK       0.042033
     30 H4           6.8910     4.9840    -4.0600 ha         1 5NK       0.148000
     31 H5           0.7500    -1.7020    -4.5290 hc         1 5NK       0.071450
     32 H6           1.6490    -1.9490    -6.0370 hc         1 5NK       0.071450
     33 H7          -0.7750    -2.1850    -6.4230 h1         1 5NK       0.039200
     34 H8          -1.0400    -0.5550    -5.7780 h1         1 5NK       0.039200
     35 H9           2.5120     0.0630    -7.3070 hc         1 5NK       0.071450
     36 H10          2.2050     1.6890    -6.6710 hc         1 5NK       0.071450
     37 H11         -0.1830    -1.0000   -10.2900 hx         1 5NK       0.116200
     38 H12         -0.4560     0.7110    -9.9300 hx         1 5NK       0.116200
     39 H13          6.2930     4.5010    -6.3730 hc         1 5NK       0.050367
     40 H14          5.4490     3.0070    -6.8030 hc         1 5NK       0.050367
     41 H15          4.5770     4.3120    -5.9870 hc         1 5NK       0.050367
     42 H16          1.6550     0.0010     2.1280 ha         1 5NK       0.135000
     43 H17          4.1170    -0.0000     2.1430 ha         1 5NK       0.134000
     44 H18          5.3750    -0.0020     0.0280 ha         1 5NK       0.137000
     45 H19          5.4490    -0.5830    -3.9270 h1         1 5NK       0.076200
     46 H20          6.0420    -0.4440    -2.2660 h1         1 5NK       0.076200
     47 H21          7.4870     3.9920    -1.8570 ha         1 5NK       0.152000
     48 H22          3.7050    -0.1140    -5.1790 hn         1 5NK       0.455800
     49 H23          0.9000     0.7340    -4.8190 h1         1 5NK       0.081700
     50 H25         -0.2190     1.3590    -6.9860 h1         1 5NK       0.039200
     51 H26          0.6460     1.1320    -8.5160 h1         1 5NK       0.039200
     52 H27         -1.3800     0.0610    -7.6550 h1         1 5NK       0.124200
     53 H28         -1.8380    -1.5580    -8.3550 h1         1 5NK       0.124200
     54 H29         -2.8320     0.2180   -10.2980 hn         1 5NK       0.455467
     55 H30         -2.4090    -1.2300   -10.9260 hn         1 5NK       0.455467
     56 H32          7.7570     1.6500    -0.9490 ho         1 5NK       0.428000
     57 C26         -0.8970    -0.2790    -9.9110 c3         1 5NK       0.132800
     58 C28          5.5270     3.7980    -6.0670 c3         1 5NK      -0.136400
     59 H273        -1.8980     0.1290   -11.6360 hn         1 5NK       0.455467
     60 O29          6.8400     1.5300    -1.1330 oh         1 5NK      -0.502100
@<TRIPOS>BOND
     1    10     9 ar
     2    10    12 ar
     3    58    19 1
     4    16    17 1
     5    16    13 1
     6    18    19 ar
     7    18    17 ar
     8     9     8 ar
     9    19     2 ar
    10    17     3 ar
    11    12    13 1
    12    12    11 ar
    13    13    14 1
    14     8     7 ar
    15     2    20 ar
    16     3    60 1
    17     3    20 ar
    18    22     6 1
    19    22    21 1
    20    22     4 1
    21    11     7 ar
    22    11    15 1
    23    14    21 1
    24    14    15 2
    25     6    24 1
    26     7     1 1
    27     4     5 1
    28    24    23 1
    29     5    23 1
    30    25    23 1
    31    25    57 1
    32    57    26 1
    33     1    27 1
    34     1    28 1
    35     1    29 1
    36     2    30 1
    37     4    31 1
    38     4    32 1
    39     5    33 1
    40     5    34 1
    41     6    35 1
    42     6    36 1
    43    57    37 1
    44    57    38 1
    45    58    39 1
    46    58    40 1
    47    58    41 1
    48     8    42 1
    49     9    43 1
    50    10    44 1
    51    16    45 1
    52    16    46 1
    53    20    47 1
    54    21    48 1
    55    22    49 1
    56    24    50 1
    57    24    51 1
    58    25    52 1
    59    25    53 1
    60    26    54 1
    61    26    55 1
    62    60    56 1
    63    59    26 1
@<TRIPOS>SUBSTRUCTURE
     1 5NK         1 TEMP              0 ****  ****    0 ROOT
