@<TRIPOS>MOLECULE
5NL
   30    32     1     0     0
SMALL
bcc


@<TRIPOS>ATOM
      1 C            0.0000     0.0000     0.0000 c          1 5NL       0.613500
      2 CA           1.5160     0.0000     0.0000 c3         1 5NL      -0.088300
      3 CG           3.5560    -1.1740    -0.7800 ca         1 5NL      -0.109300
      4 CD1          4.3390    -1.6810     0.2570 ca         1 5NL      -0.109000
      5 CE1          5.6980    -1.6270     0.2000 ca         1 5NL      -0.077000
      6 CZ           6.3240    -1.0510    -0.9190 ca         1 5NL      -0.036000
      7 CE2          5.5290    -0.5360    -1.9730 ca         1 5NL      -0.034000
      8 CD2          4.1280    -0.6110    -1.8780 ca         1 5NL      -0.076000
      9 N10          1.8620     0.0000     1.4310 ns         1 5NL      -0.208900
     10 C2           0.6990    -0.0000     2.1090 c          1 5NL       0.603500
     11 N11         -0.3640     0.0000     1.2970 ns         1 5NL      -0.162500
     12 C1           6.1540     0.0390    -3.0920 ca         1 5NL      -0.088000
     13 C3           7.5140     0.0930    -3.1490 ca         1 5NL      -0.095000
     14 C5           8.2960    -0.4130    -2.1130 ca         1 5NL      -0.096000
     15 C6           7.7240    -0.9760    -1.0140 ca         1 5NL      -0.087000
     16 C4           2.0550    -1.2580    -0.6850 c3         1 5NL       0.033900
     17 O3          -0.7310     0.0050    -0.9660 o          1 5NL      -0.612500
     18 O2           0.6240    -0.0010     3.3220 o          1 5NL      -0.694500
     19 HA           1.8940     0.8940    -0.4810 h1         1 5NL       0.063700
     20 H11         -1.3140     0.0000     1.6140 hn         1 5NL       0.207500
     21 H10          2.7830    -0.0000     1.8240 hn         1 5NL       0.227500
     22 H41C         1.6340    -1.3360    -1.6800 hc         1 5NL       0.036700
     23 H42C         1.7770    -2.1310    -0.1060 hc         1 5NL       0.036700
     24 HD1          3.8590    -2.1250     1.1210 ha         1 5NL       0.107000
     25 HD2          3.5070    -0.2210    -2.6760 ha         1 5NL       0.113000
     26 HE1          6.2940    -2.0240     1.0120 ha         1 5NL       0.109000
     27 H6           8.3460    -1.3650    -0.2170 ha         1 5NL       0.107000
     28 H1           5.5590     0.4370    -3.9050 ha         1 5NL       0.108000
     29 HB           7.9940     0.5360    -4.0130 ha         1 5NL       0.103000
     30 HC           9.3750    -0.3570    -2.1830 ha         1 5NL       0.103000
@<TRIPOS>BOND
     1     1     2 1   
     2     1    11 1   
     3     1    17 2   
     4     2     9 1   
     5     2    16 1   
     6     2    19 1   
     7     3     4 ar  
     8     3     8 ar  
     9     3    16 1   
    10     4     5 ar  
    11     4    24 1   
    12     5     6 ar  
    13     5    26 1   
    14     6     7 ar  
    15     6    15 ar  
    16     7     8 ar  
    17     7    12 ar  
    18     8    25 1   
    19     9    10 1   
    20     9    21 1   
    21    10    11 1   
    22    10    18 2   
    23    11    20 1   
    24    12    13 ar  
    25    12    28 1   
    26    13    14 ar  
    27    13    29 1   
    28    14    15 ar  
    29    14    30 1   
    30    15    27 1   
    31    16    22 1   
    32    16    23 1   
@<TRIPOS>SUBSTRUCTURE
     1 5NL         1 TEMP              0 ****  ****    0 ROOT
