@<TRIPOS>MOLECULE
5NM
   53    57     1     0     0
SMALL
bcc


@<TRIPOS>ATOM
      1 C10          0.0000     0.0000     0.0000 c3         1 5NM       0.064700
      2 C13          4.3280    -0.0010    -2.4490 cx         1 5NM      -0.075300
      3 C15          4.2860    -1.1750    -3.4290 cx         1 5NM      -0.085900
      4 C22          4.8450     0.0000     0.7320 ca         1 5NM      -0.206300
      5 C24          2.4620    -0.0000     2.0770 ca         1 5NM       0.447200
      6 C26         -2.7060     1.3580    -2.2810 c3         1 5NM      -0.011400
      7 C28         -2.0400     5.6630     0.2990 ca         1 5NM      -0.069000
      8 C01          2.0170    -0.0010    -1.4840 c          1 5NM       0.576500
      9 N02          1.4410    -0.0000    -0.2670 n          1 5NM       0.066000
     10 N03          3.3580    -0.0010    -1.3520 n          1 5NM       0.130000
     11 C04         -0.4690     1.4130     0.2260 cc         1 5NM       0.176800
     12 N05         -0.4030     2.0480     1.3600 nd         1 5NM      -0.500100
     13 C06          2.4480    -0.0000     0.6930 ca         1 5NM      -0.275700
     14 C07          3.6640     0.0000     0.0000 ca         1 5NM      -0.131400
     15 N08         -1.0240     2.2120    -0.7250 na         1 5NM       0.337700
     16 C09         -0.9080     3.3000     1.2130 ca         1 5NM       0.062400
     17 C11         -1.3150     3.4220    -0.1270 ca         1 5NM      -0.252200
     18 S12         -4.6660     0.3970    -3.9290 s6         1 5NM       0.795000
     19 C14          3.7910     0.2060    -3.8670 cx         1 5NM      -0.085900
     20 C16         -1.0820     4.3770     2.0860 ca         1 5NM      -0.015000
     21 C18         -1.8810     4.6090    -0.5730 ca         1 5NM      -0.081000
     22 O19         -4.8090    -0.8150    -3.2010 o          1 5NM      -0.583800
     23 O20         -5.5490     1.4770    -3.6580 o          1 5NM      -0.583800
     24 N21          3.6090     0.0050     2.7320 nb         1 5NM      -0.578000
     25 C23         -1.6390     5.5480     1.6240 ca         1 5NM       0.018100
     26 C25         -1.2670     1.8550    -2.1250 c3         1 5NM      -0.071700
     27 C27         -2.9610     0.9850    -3.7430 c3         1 5NM      -0.015600
     28 C29         -4.7420     0.0190    -5.7010 c3         1 5NM       0.015700
     29 Br3         -1.8620     7.0110     2.8020 br         1 5NM      -0.128100
     30 C31          4.7740    -0.0000     2.1100 ca         1 5NM       0.410200
     31 H1          -0.2040    -0.5940     0.8830 h1         1 5NM       0.050200
     32 H2          -0.5240    -0.4230    -0.8480 h1         1 5NM       0.050200
     33 H3           5.3160     0.4090    -2.2740 h1         1 5NM       0.077700
     34 H4           5.2430    -1.4790    -3.8350 hc         1 5NM       0.064450
     35 H5           3.5130    -1.9110    -3.2430 hc         1 5NM       0.064450
     36 H6           5.8050    -0.0040     0.2290 ha         1 5NM       0.117000
     37 H7           1.5280     0.0040     2.6260 h4         1 5NM      -0.002900
     38 H8          -2.8580     0.4870    -1.6550 hc         1 5NM       0.040200
     39 H9          -3.3930     2.1410    -1.9840 hc         1 5NM       0.040200
     40 H10         -2.4770     6.5900    -0.0520 ha         1 5NM       0.118000
     41 H11          4.4450     0.7450    -4.5420 hc         1 5NM       0.064450
     42 H12          2.7160     0.3120    -3.9490 hc         1 5NM       0.064450
     43 H13         -0.7710     4.2940     3.1210 ha         1 5NM       0.125000
     44 H14         -2.1960     4.7060    -1.6050 ha         1 5NM       0.107000
     45 H15         -0.5800     1.0720    -2.4230 h1         1 5NM       0.058200
     46 H16         -1.1160     2.7260    -2.7510 h1         1 5NM       0.058200
     47 H17         -2.8090     1.8560    -4.3690 h1         1 5NM       0.067200
     48 H18         -2.2740     0.2020    -4.0410 h1         1 5NM       0.067200
     49 H19         -5.7290    -0.3490    -5.9510 h1         1 5NM       0.061033
     50 H20         -4.0030    -0.7360    -5.9420 h1         1 5NM       0.061033
     51 H21         -4.5370     0.9180    -6.2710 h1         1 5NM       0.061033
     52 H22          5.6880     0.0040     2.6920 h4         1 5NM      -0.016900
     53 O17          1.4190    -0.0010    -2.5440 o          1 5NM      -0.747500
@<TRIPOS>BOND
     1     1     9 1   
     2     1    11 1   
     3     1    31 1   
     4     1    32 1   
     5     2     3 1   
     6     2    10 1   
     7     2    19 1   
     8     2    33 1   
     9     3    19 1   
    10     3    34 1   
    11     3    35 1   
    12     4    14 ar  
    13     4    30 ar  
    14     4    36 1   
    15     5    13 ar  
    16     5    24 ar  
    17     5    37 1   
    18     6    26 1   
    19     6    27 1   
    20     6    38 1   
    21     6    39 1   
    22     7    21 ar  
    23     7    25 ar  
    24     7    40 1   
    25     8     9 1   
    26     8    10 1   
    27     8    53 2   
    28     9    13 1   
    29    10    14 1   
    30    11    12 2   
    31    11    15 1   
    32    12    16 1   
    33    13    14 ar  
    34    15    17 1   
    35    15    26 1   
    36    16    17 ar  
    37    16    20 ar  
    38    17    21 ar  
    39    18    22 2   
    40    18    23 2   
    41    18    27 1   
    42    18    28 1   
    43    19    41 1   
    44    19    42 1   
    45    20    25 ar  
    46    20    43 1   
    47    21    44 1   
    48    24    30 ar  
    49    25    29 1   
    50    26    45 1   
    51    26    46 1   
    52    27    47 1   
    53    27    48 1   
    54    28    49 1   
    55    28    50 1   
    56    28    51 1   
    57    30    52 1   
@<TRIPOS>SUBSTRUCTURE
     1 5NM         1 TEMP              0 ****  ****    0 ROOT
