@<TRIPOS>MOLECULE
5NN
   30    32     1     0     0
SMALL
bcc


@<TRIPOS>ATOM
      1 CAN          0.0000     0.0000     0.0000 ca         1 5NN      -0.094500
      2 CAR          1.3790     0.0000     0.0000 ca         1 5NN      -0.092500
      3 CAQ          2.0740     0.0000     1.1970 ca         1 5NN      -0.092000
      4 CAP          1.3920     0.0010     2.4000 ca         1 5NN      -0.092500
      5 CAO          0.0120     0.0010     2.4140 ca         1 5NN      -0.094500
      6 CAL         -0.6950     0.0010     1.2110 ca         1 5NN      -0.060800
      7 CAI         -2.1730     0.0020     1.2180 cc         1 5NN      -0.058600
      8 CAH         -2.8220     0.0030     2.4090 cd         1 5NN      -0.166200
      9 CAE         -4.2380     0.0040     2.4430 ca         1 5NN      -0.006800
     10 CAD         -4.9440     0.0060     3.6580 ca         1 5NN       0.015600
     11 NAM         -4.2580     0.0070     4.8710 nv         1 5NN      -0.552200
     12 CAC         -6.3270     0.0070     3.6400 ca         1 5NN      -0.082000
     13 CAB         -7.0200     0.0070     2.4370 ca         1 5NN      -0.124000
     14 CAA         -6.3470     0.0050     1.2350 ca         1 5NN      -0.026000
     15 CAF         -4.9510     0.0040     1.2230 ca         1 5NN      -0.164600
     16 CAG         -4.1930     0.0030    -0.0330 c          1 5NN       0.612100
     17 OAK         -4.7710     0.0030    -1.1050 o          1 5NN      -0.686500
     18 NAJ         -2.8450     0.0080     0.0190 ns         1 5NN       0.032900
     19 HAN         -0.5430    -0.0000    -0.9370 ha         1 5NN       0.111500
     20 HAR          1.9200    -0.0010    -0.9390 ha         1 5NN       0.105500
     21 HAQ          3.1580    -0.0000     1.1920 ha         1 5NN       0.105000
     22 HAP          1.9420     0.0010     3.3330 ha         1 5NN       0.105500
     23 HAO         -0.5210     0.0020     3.3570 ha         1 5NN       0.111500
     24 HAH         -2.2580     0.0010     3.3330 ha         1 5NN       0.135000
     25 HAJ         -2.3220     0.0160    -0.8350 hn         1 5NN       0.178500
     26 HAM1        -4.0280     0.8740     5.3150 hn         1 5NN       0.272800
     27 HAM2        -4.0300    -0.8590     5.3170 hn         1 5NN       0.272800
     28 HAC         -6.8750     0.0090     4.5750 ha         1 5NN       0.105000
     29 HAB         -8.1040     0.0080     2.4430 ha         1 5NN       0.105000
     30 HAA         -6.8990     0.0050     0.3030 ha         1 5NN       0.124000
@<TRIPOS>BOND
     1     1     2 ar  
     2     1     6 ar  
     3     1    19 1   
     4     2     3 ar  
     5     2    20 1   
     6     3     4 ar  
     7     3    21 1   
     8     4     5 ar  
     9     4    22 1   
    10     5     6 ar  
    11     5    23 1   
    12     6     7 1   
    13     7     8 2   
    14     7    18 1   
    15     8     9 1   
    16     8    24 1   
    17     9    10 ar  
    18     9    15 ar  
    19    10    11 1   
    20    10    12 ar  
    21    11    26 1   
    22    11    27 1   
    23    12    13 ar  
    24    12    28 1   
    25    13    14 ar  
    26    13    29 1   
    27    14    15 ar  
    28    14    30 1   
    29    15    16 1   
    30    16    17 2   
    31    16    18 1   
    32    18    25 1   
@<TRIPOS>SUBSTRUCTURE
     1 5NN         1 TEMP              0 ****  ****    0 ROOT
