@<TRIPOS>MOLECULE
5NO
   51    55     1     0     0
SMALL
bcc


@<TRIPOS>ATOM
      1 C10          0.0000     0.0000     0.0000 ca         1 5NO      -0.201300
      2 C15          4.9820    -1.4110     2.1520 cc         1 5NO       0.166800
      3 C17          6.0470    -3.2870     1.8830 ca         1 5NO       0.053400
      4 C20          6.0440    -5.6560     3.3180 ca         1 5NO      -0.083000
      5 C21          5.2490    -4.6130     3.7400 ca         1 5NO      -0.094000
      6 C22          5.2420    -3.4210     3.0280 ca         1 5NO      -0.253200
      7 C26          3.3600    -0.7840     6.4630 c3         1 5NO      -0.036400
      8 C01          3.3200    -0.2040    -3.3540 cx         1 5NO      -0.084900
      9 C02          2.6660     1.1750    -3.2420 cx         1 5NO      -0.084900
     10 C03          2.1150    -0.0000    -2.4320 cx         1 5NO      -0.077300
     11 N04          2.3610    -0.0010    -0.9870 n          1 5NO       0.119000
     12 C05          1.3900     0.0000     0.0000 ca         1 5NO      -0.119400
     13 C06          2.0580     0.0000     1.2300 ca         1 5NO      -0.280700
     14 C07          1.3170     0.0000     2.3980 ca         1 5NO       0.405200
     15 N08         -0.0020    -0.0000     2.3520 nb         1 5NO      -0.577000
     16 C09         -0.6650     0.0010     1.2100 ca         1 5NO       0.403200
     17 N11          3.4200     0.0000     0.9450 n          1 5NO       0.054000
     18 C12          3.5710    -0.0010    -0.3950 c          1 5NO       0.581500
     19 O13          4.6380    -0.0010    -0.9790 o          1 5NO      -0.686500
     20 C14          4.5040     0.0010     1.9300 c3         1 5NO       0.069700
     21 N16          5.8400    -2.0350     1.4000 nd         1 5NO      -0.467100
     22 C18          6.8480    -4.3570     1.4760 ca         1 5NO      -0.029000
     23 C19          6.8400    -5.5220     2.1890 ca         1 5NO      -0.124000
     24 N23          4.5830    -2.2170     3.1730 na         1 5NO       0.318700
     25 C25          4.3580    -1.1440     5.3600 c3         1 5NO      -0.046400
     26 C27          4.0900    -0.0550     7.5930 c3         1 5NO       0.227400
     27 O28          3.1580     0.2800     8.6230 oh         1 5NO      -0.591800
     28 H1          -0.5520     0.0010    -0.9320 ha         1 5NO       0.119000
     29 H2           6.0490    -6.5870     3.8720 ha         1 5NO       0.103000
     30 H3           4.6290    -4.7230     4.6220 ha         1 5NO       0.101000
     31 H4           3.1750    -2.7780     4.6160 h1         1 5NO       0.046200
     32 H5           2.8570    -1.2290     3.8230 h1         1 5NO       0.046200
     33 H6           2.5900    -0.1400     6.0570 hc         1 5NO       0.026700
     34 H7           2.9080    -1.6890     6.8500 hc         1 5NO       0.026700
     35 H8           4.2760    -0.3090    -2.8570 hc         1 5NO       0.065450
     36 H9           3.1200    -0.7430    -4.2720 hc         1 5NO       0.065450
     37 H10          3.2230     1.9130    -2.6770 hc         1 5NO       0.065450
     38 H11          2.0660     1.4780    -4.0920 hc         1 5NO       0.065450
     39 H12          1.1850    -0.4120    -2.8040 h1         1 5NO       0.074700
     40 H13          1.8220    -0.0000     3.3570 h4         1 5NO      -0.015900
     41 H14         -1.7480     0.0010     1.2220 h4         1 5NO      -0.015900
     42 H15          5.3240     0.6070     1.5640 h1         1 5NO       0.046200
     43 H16          4.1410     0.4110     2.8650 h1         1 5NO       0.046200
     44 H17          7.4730    -4.2630     0.5960 ha         1 5NO       0.112000
     45 H18          7.4600    -6.3510     1.8690 ha         1 5NO       0.105000
     46 H19          5.1290    -1.7880     5.7660 hc         1 5NO       0.025700
     47 H20          4.8110    -0.2390     4.9730 hc         1 5NO       0.025700
     48 H21          4.8610    -0.6990     7.9990 h1         1 5NO      -0.014800
     49 H22          4.5420     0.8500     7.2060 h1         1 5NO      -0.014800
     50 H23          3.6070     0.7290     9.3200 ho         1 5NO       0.393000
     51 C24          3.6280    -1.8730     4.2290 c3         1 5NO      -0.060700
@<TRIPOS>BOND
     1     1    12 ar  
     2     1    16 ar  
     3     1    28 1   
     4     2    20 1   
     5     2    21 2   
     6     2    24 1   
     7     3     6 ar  
     8     3    21 1   
     9     3    22 ar  
    10     4     5 ar  
    11     4    23 ar  
    12     4    29 1   
    13     5     6 ar  
    14     5    30 1   
    15     6    24 1   
    16     7    25 1   
    17     7    26 1   
    18     7    33 1   
    19     7    34 1   
    20     8     9 1   
    21     8    10 1   
    22     8    35 1   
    23     8    36 1   
    24     9    10 1   
    25     9    37 1   
    26     9    38 1   
    27    10    11 1   
    28    10    39 1   
    29    11    12 1   
    30    11    18 1   
    31    12    13 ar  
    32    13    14 ar  
    33    13    17 1   
    34    14    15 ar  
    35    14    40 1   
    36    15    16 ar  
    37    16    41 1   
    38    17    18 1   
    39    17    20 1   
    40    18    19 2   
    41    20    42 1   
    42    20    43 1   
    43    22    23 ar  
    44    22    44 1   
    45    23    45 1   
    46    24    51 1   
    47    25    46 1   
    48    25    47 1   
    49    25    51 1   
    50    26    27 1   
    51    26    48 1   
    52    26    49 1   
    53    27    50 1   
    54    31    51 1   
    55    32    51 1   
@<TRIPOS>SUBSTRUCTURE
     1 5NO         1 TEMP              0 ****  ****    0 ROOT
