@<TRIPOS>MOLECULE
molecule
   51    55     1     0     0
SMALL
bcc


@<TRIPOS>ATOM
      1 C10          0.0000     0.0000     0.0000 ca         1 5NO      -0.247300
      2 C15          4.9820    -1.4110     2.1520 cc         1 5NO       0.379800
      3 C17          6.0470    -3.2870     1.8830 ca         1 5NO       0.086400
      4 C20          6.0440    -5.6560     3.3180 ca         1 5NO      -0.109000
      5 C21          5.2490    -4.6130     3.7400 ca         1 5NO      -0.131000
      6 C22          5.2420    -3.4210     3.0280 ca         1 5NO      -0.085200
      7 C26          3.3600    -0.7840     6.4630 c3         1 5NO      -0.082400
      8 C01          3.3200    -0.2040    -3.3540 cx         1 5NO      -0.139400
      9 C02          2.6660     1.1750    -3.2420 cx         1 5NO      -0.139400
     10 C03          2.1150    -0.0000    -2.4320 cx         1 5NO       0.040700
     11 N04          2.3610    -0.0010    -0.9870 n          1 5NO      -0.318000
     12 C05          1.3900     0.0000     0.0000 ca         1 5NO       0.040600
     13 C06          2.0580     0.0000     1.2300 ca         1 5NO      -0.136700
     14 C07          1.3170     0.0000     2.3980 ca         1 5NO       0.416200
     15 N08         -0.0020    -0.0000     2.3520 nb         1 5NO      -0.682000
     16 C09         -0.6650     0.0010     1.2100 ca         1 5NO       0.418200
     17 N11          3.4200     0.0000     0.9450 n          1 5NO      -0.355000
     18 C12          3.5710    -0.0010    -0.3950 c          1 5NO       0.809500
     19 O13          4.6380    -0.0010    -0.9790 o          1 5NO      -0.633500
     20 C14          4.5040     0.0010     1.9300 c3         1 5NO       0.137700
     21 N16          5.8400    -2.0350     1.4000 nd         1 5NO      -0.562100
     22 C18          6.8480    -4.3570     1.4760 ca         1 5NO      -0.062000
     23 C19          6.8400    -5.5220     2.1890 ca         1 5NO      -0.150000
     24 N23          4.5830    -2.2170     3.1730 na         1 5NO      -0.149300
     25 C25          4.3580    -1.1440     5.3600 c3         1 5NO      -0.107400
     26 C27          4.0900    -0.0550     7.5930 c3         1 5NO       0.143400
     27 O28          3.1580     0.2800     8.6230 oh         1 5NO      -0.609800
     28 H1          -0.5520     0.0010    -0.9320 ha         1 5NO       0.145000
     29 H2           6.0490    -6.5870     3.8720 ha         1 5NO       0.132000
     30 H3           4.6290    -4.7230     4.6220 ha         1 5NO       0.126000
     31 H4           3.1750    -2.7780     4.6160 h1         1 5NO       0.067200
     32 H5           2.8570    -1.2290     3.8230 h1         1 5NO       0.067200
     33 H6           2.5900    -0.1400     6.0570 hc         1 5NO       0.057200
     34 H7           2.9080    -1.6890     6.8500 hc         1 5NO       0.057200
     35 H8           4.2760    -0.3090    -2.8570 hc         1 5NO       0.093950
     36 H9           3.1200    -0.7430    -4.2720 hc         1 5NO       0.093950
     37 H10          3.2230     1.9130    -2.6770 hc         1 5NO       0.093950
     38 H11          2.0660     1.4780    -4.0920 hc         1 5NO       0.093950
     39 H12          1.1850    -0.4120    -2.8040 h1         1 5NO       0.102700
     40 H13          1.8220    -0.0000     3.3570 h4         1 5NO       0.021100
     41 H14         -1.7480     0.0010     1.2220 h4         1 5NO       0.031100
     42 H15          5.3240     0.6070     1.5640 h1         1 5NO       0.084200
     43 H16          4.1410     0.4110     2.8650 h1         1 5NO       0.084200
     44 H17          7.4730    -4.2630     0.5960 ha         1 5NO       0.145000
     45 H18          7.4600    -6.3510     1.8690 ha         1 5NO       0.133000
     46 H19          5.1290    -1.7880     5.7660 hc         1 5NO       0.054200
     47 H20          4.8110    -0.2390     4.9730 hc         1 5NO       0.054200
     48 H21          4.8610    -0.6990     7.9990 h1         1 5NO       0.021700
     49 H22          4.5420     0.8500     7.2060 h1         1 5NO       0.021700
     50 H23          3.6070     0.7290     9.3200 ho         1 5NO       0.405000
     51 C24          3.6280    -1.8730     4.2290 c3         1 5NO       0.041300
@<TRIPOS>BOND
     1    27    26 1
     2     7    26 1
     3     7    25 1
     4    25    51 1
     5    51    24 1
     6     5     4 ar
     7     5     6 ar
     8     4    23 ar
     9     6    24 1
    10     6     3 ar
    11    24     2 1
    12    23    22 ar
    13     9    10 1
    14     9     8 1
    15    19    18 2
    16     3    22 ar
    17     3    21 1
    18     2    20 1
    19     2    21 2
    20    18    17 1
    21    18    11 1
    22    20    17 1
    23    10    11 1
    24    10     8 1
    25    17    13 1
    26    11    12 1
    27    13    12 ar
    28    13    14 ar
    29    12     1 ar
    30    14    15 ar
    31     1    16 ar
    32    15    16 ar
    33     1    28 1
    34     4    29 1
    35     5    30 1
    36    51    31 1
    37    51    32 1
    38     7    33 1
    39     7    34 1
    40     8    35 1
    41     8    36 1
    42     9    37 1
    43     9    38 1
    44    10    39 1
    45    14    40 1
    46    16    41 1
    47    20    42 1
    48    20    43 1
    49    22    44 1
    50    23    45 1
    51    25    46 1
    52    25    47 1
    53    26    48 1
    54    26    49 1
    55    27    50 1
@<TRIPOS>SUBSTRUCTURE
     1 5NO         1 TEMP              0 ****  ****    0 ROOT
