@<TRIPOS>MOLECULE
molecule
   43    47     1     0     0
SMALL
bcc


@<TRIPOS>ATOM
      1 C10          0.0000     0.0000     0.0000 c3         1 5NP       0.066000
      2 C13          1.3060    -1.4830     3.0330 c          1 5NP       0.754100
      3 C15          2.2860     0.0010    -1.0790 c          1 5NP       0.713700
      4 C17          2.5580     2.3830     1.0270 ca         1 5NP      -0.095500
      5 C20          1.7080    -0.1230    -2.4340 ca         1 5NP      -0.275900
      6 C21          4.9140    -2.6820     2.5490 ca         1 5NP       0.420200
      7 C22          2.7570     3.6750     1.4770 ca         1 5NP      -0.124500
      8 C24          2.5160     3.9900     2.8030 ca         1 5NP       0.038400
      9 C26          0.3280    -0.0650    -2.6250 ca         1 5NP       0.412200
     10 C28          0.5690    -0.3410    -4.8990 ca         1 5NP       0.444200
     11 Cl1          2.7660     5.6120     3.3700 cl         1 5NP      -0.104400
     12 O02          0.7240    -1.9460     3.9930 o          1 5NP      -0.598500
     13 O03          3.4890     0.1020    -0.9390 o          1 5NP      -0.610100
     14 N04          0.7760    -0.6460     2.1390 n          1 5NP      -0.505800
     15 N05          1.4790     0.0000     0.0000 n          1 5NP      -0.488800
     16 N06          5.2240    -1.8330     1.5900 nb         1 5NP      -0.675000
     17 N07         -0.1880    -0.1740    -3.8320 nb         1 5NP      -0.694000
     18 C08          1.8940     0.0000     1.4080 c3         1 5NP       0.354400
     19 C09         -0.4130    -0.0670     1.4910 c3         1 5NP       0.138000
     20 C11          3.0910    -0.8680     1.6610 ca         1 5NP      -0.217600
     21 C12          2.1170     1.4070     1.9010 ca         1 5NP      -0.112300
     22 C14          2.7150    -1.7580     2.6740 ca         1 5NP      -0.119600
     23 C16          4.3620    -0.9420     1.1370 ca         1 5NP       0.464200
     24 C18          1.8810     1.7200     3.2260 ca         1 5NP      -0.095500
     25 C19          3.6580    -2.6810     3.1260 ca         1 5NP      -0.196300
     26 C23          2.0750     3.0120     3.6770 ca         1 5NP      -0.124500
     27 C25          2.5380    -0.2930    -3.5500 ca         1 5NP      -0.030000
     28 C27          1.9470    -0.4030    -4.7960 ca         1 5NP      -0.263300
     29 H1          -0.3730    -0.8680    -0.5310 h1         1 5NP       0.067200
     30 H2          -0.3730     0.9120    -0.4500 h1         1 5NP       0.067200
     31 H3           2.7470     2.1370    -0.0110 ha         1 5NP       0.150500
     32 H4           5.6550    -3.3960     2.8880 h4         1 5NP       0.030100
     33 H5           3.1020     4.4400     0.7930 ha         1 5NP       0.149500
     34 H6          -0.3270     0.0720    -1.7720 h4         1 5NP       0.045100
     35 H7           0.1030    -0.4260    -5.8730 h4         1 5NP       0.028100
     36 H8          -0.6130     0.9250     1.8760 h1         1 5NP       0.071700
     37 H9          -1.2710    -0.7160     1.6190 h1         1 5NP       0.071700
     38 H10          4.6570    -0.2620     0.3470 h4         1 5NP       0.080100
     39 H11          1.5360     0.9540     3.9110 ha         1 5NP       0.150500
     40 H12          3.4110    -3.3820     3.9140 ha         1 5NP       0.154000
     41 H13          1.8880     3.2570     4.7160 ha         1 5NP       0.149500
     42 H14          3.6150    -0.3380    -3.4390 ha         1 5NP       0.165000
     43 H15          2.5560    -0.5380    -5.6810 ha         1 5NP       0.148000
@<TRIPOS>BOND
     1    11     8 1
     2     7     8 ar
     3     7     4 ar
     4     8    26 ar
     5     4    21 ar
     6    26    24 ar
     7    16    23 ar
     8    16     6 ar
     9    23    20 ar
    10    21    24 ar
    11    21    18 1
    12     6    25 ar
    13    20    18 1
    14    20    22 ar
    15    13     3 2
    16    18    15 1
    17    18    14 1
    18    25    22 ar
    19     3    15 1
    20     3     5 1
    21    22     2 1
    22    15     1 1
    23     9     5 ar
    24     9    17 ar
    25     5    27 ar
    26    14     2 1
    27    14    19 1
    28     1    19 1
    29     2    12 2
    30    17    10 ar
    31    27    28 ar
    32    10    28 ar
    33     1    29 1
    34     1    30 1
    35     4    31 1
    36     6    32 1
    37     7    33 1
    38     9    34 1
    39    10    35 1
    40    19    36 1
    41    19    37 1
    42    23    38 1
    43    24    39 1
    44    25    40 1
    45    26    41 1
    46    27    42 1
    47    28    43 1
@<TRIPOS>SUBSTRUCTURE
     1 5NP         1 TEMP              0 ****  ****    0 ROOT
