@<TRIPOS>MOLECULE
5NP
   43    47     1     0     0
SMALL
bcc


@<TRIPOS>ATOM
      1 C10          0.0000     0.0000     0.0000 c3         1 5NP       0.007000
      2 C13          1.3060    -1.4830     3.0330 c          1 5NP       0.702100
      3 C15          2.2860     0.0010    -1.0790 c          1 5NP       0.653700
      4 C17          2.5580     2.3830     1.0270 ca         1 5NP      -0.076500
      5 C20          1.7080    -0.1230    -2.4340 ca         1 5NP      -0.281900
      6 C21          4.9140    -2.6820     2.5490 ca         1 5NP       0.400200
      7 C22          2.7570     3.6750     1.4770 ca         1 5NP      -0.096000
      8 C24          2.5160     3.9900     2.8030 ca         1 5NP      -0.026600
      9 C26          0.3280    -0.0650    -2.6250 ca         1 5NP       0.362200
     10 C28          0.5690    -0.3410    -4.8990 ca         1 5NP       0.429200
     11 Cl1          2.7660     5.6120     3.3700 cl         1 5NP      -0.020400
     12 O02          0.7240    -1.9460     3.9930 o          1 5NP      -0.644500
     13 O03          3.4890     0.1020    -0.9390 o          1 5NP      -0.645100
     14 N04          0.7760    -0.6460     2.1390 n          1 5NP      -0.188800
     15 N05          1.4790     0.0000     0.0000 n          1 5NP      -0.152800
     16 N06          5.2240    -1.8330     1.5900 nb         1 5NP      -0.566000
     17 N07         -0.1880    -0.1740    -3.8320 nb         1 5NP      -0.583000
     18 C08          1.8940     0.0000     1.4080 c3         1 5NP       0.185400
     19 C09         -0.4130    -0.0670     1.4910 c3         1 5NP       0.104000
     20 C11          3.0910    -0.8680     1.6610 ca         1 5NP      -0.225600
     21 C12          2.1170     1.4070     1.9010 ca         1 5NP      -0.128300
     22 C14          2.7150    -1.7580     2.6740 ca         1 5NP      -0.139600
     23 C16          4.3620    -0.9420     1.1370 ca         1 5NP       0.432200
     24 C18          1.8810     1.7200     3.2260 ca         1 5NP      -0.076500
     25 C19          3.6580    -2.6810     3.1260 ca         1 5NP      -0.149300
     26 C23          2.0750     3.0120     3.6770 ca         1 5NP      -0.096000
     27 C25          2.5380    -0.2930    -3.5500 ca         1 5NP       0.002000
     28 C27          1.9470    -0.4030    -4.7960 ca         1 5NP      -0.230300
     29 H1          -0.3730    -0.8680    -0.5310 h1         1 5NP       0.044200
     30 H2          -0.3730     0.9120    -0.4500 h1         1 5NP       0.044200
     31 H3           2.7470     2.1370    -0.0110 ha         1 5NP       0.123000
     32 H4           5.6550    -3.3960     2.8880 h4         1 5NP      -0.016900
     33 H5           3.1020     4.4400     0.7930 ha         1 5NP       0.118500
     34 H6          -0.3270     0.0720    -1.7720 h4         1 5NP       0.020100
     35 H7           0.1030    -0.4260    -5.8730 h4         1 5NP      -0.018900
     36 H8          -0.6130     0.9250     1.8760 h1         1 5NP       0.035200
     37 H9          -1.2710    -0.7160     1.6190 h1         1 5NP       0.035200
     38 H10          4.6570    -0.2620     0.3470 h4         1 5NP       0.046100
     39 H11          1.5360     0.9540     3.9110 ha         1 5NP       0.123000
     40 H12          3.4110    -3.3820     3.9140 ha         1 5NP       0.124000
     41 H13          1.8880     3.2570     4.7160 ha         1 5NP       0.118500
     42 H14          3.6150    -0.3380    -3.4390 ha         1 5NP       0.132000
     43 H15          2.5560    -0.5380    -5.6810 ha         1 5NP       0.120000
@<TRIPOS>BOND
     1     1    15 1   
     2     1    19 1   
     3     1    29 1   
     4     1    30 1   
     5     2    12 2   
     6     2    14 1   
     7     2    22 1   
     8     3     5 1   
     9     3    13 2   
    10     3    15 1   
    11     4     7 ar  
    12     4    21 ar  
    13     4    31 1   
    14     5     9 ar  
    15     5    27 ar  
    16     6    16 ar  
    17     6    25 ar  
    18     6    32 1   
    19     7     8 ar  
    20     7    33 1   
    21     8    11 1   
    22     8    26 ar  
    23     9    17 ar  
    24     9    34 1   
    25    10    17 ar  
    26    10    28 ar  
    27    10    35 1   
    28    14    18 1   
    29    14    19 1   
    30    15    18 1   
    31    16    23 ar  
    32    18    20 1   
    33    18    21 1   
    34    19    36 1   
    35    19    37 1   
    36    20    22 ar  
    37    20    23 ar  
    38    21    24 ar  
    39    22    25 ar  
    40    23    38 1   
    41    24    26 ar  
    42    24    39 1   
    43    25    40 1   
    44    26    41 1   
    45    27    28 ar  
    46    27    42 1   
    47    28    43 1   
@<TRIPOS>SUBSTRUCTURE
     1 5NP         1 TEMP              0 ****  ****    0 ROOT
