@<TRIPOS>MOLECULE
5NQ
   66    69     1     0     0
SMALL
bcc


@<TRIPOS>ATOM
      1 C1           0.0000     0.0000     0.0000 c3         1 5NQ       0.006900
      2 C2           1.5300     0.0000     0.0000 c3         1 5NQ      -0.021400
      3 C3           2.0400     0.0000     1.4420 c3         1 5NQ      -0.049400
      4 C4           3.5700    -0.0010     1.4420 c3         1 5NQ       0.027000
      5 N5           4.0590    -0.0010     2.8230 n          1 5NQ       0.002700
      6 C6           4.2790     1.1650     3.4580 c          1 5NQ       0.589500
      7 O31          4.0660     2.2090     2.8710 o          1 5NQ      -0.707500
      8 N7           4.7270     1.2050     4.7250 ns         1 5NQ      -0.122500
      9 C8           4.9740     0.0710     5.4110 c          1 5NQ       0.676100
     10 O32          5.3790     0.1190     6.5590 o          1 5NQ      -0.687500
     11 C9           4.7570    -1.1750     4.7830 cc         1 5NQ      -0.549200
     12 N11          4.9000    -2.4930     5.1690 na         1 5NQ       0.412100
     13 C33          5.3630    -2.9730     6.4720 c3         1 5NQ      -0.081700
     14 C34          4.1630    -3.1470     7.4080 c3         1 5NQ      -0.007100
     15 C10          4.2890    -1.2020     3.4750 cd         1 5NQ       0.326200
     16 N13          4.1650    -2.4850     3.1250 nd         1 5NQ      -0.605000
     17 C12          4.5330    -3.2530     4.1190 cc         1 5NQ       0.239800
     18 C14          4.5290    -4.7590     4.0970 c3         1 5NQ       0.080400
     19 S15          6.1330    -5.3590     3.4990 ss         1 5NQ      -0.247300
     20 C16          5.9430    -7.1110     3.5420 cc         1 5NQ       0.640200
     21 N20          4.8460    -7.7560     3.9350 nc         1 5NQ      -0.411300
     22 N17          6.8620    -7.9860     3.1860 nd         1 5NQ      -0.743100
     23 N18          6.3090    -9.2590     3.3720 na         1 5NQ       0.515200
     24 C21          6.7850   -10.5170     3.1770 cd         1 5NQ      -0.136600
     25 C26          8.1830   -10.7340     2.6580 c3         1 5NQ       0.053200
     26 C19          5.0410    -9.0670     3.8440 cd         1 5NQ       0.231500
     27 N24          4.2580   -10.1160     4.1200 nd         1 5NQ      -0.536000
     28 C23          4.6890   -11.3440     3.9430 cc         1 5NQ       0.419600
     29 C25          3.7870   -12.5090     4.2610 c3         1 5NQ      -0.050400
     30 C22          5.9820   -11.5760     3.4600 cc         1 5NQ      -0.235600
     31 C27          6.4790   -12.9840     3.2560 c3         1 5NQ       0.029900
     32 C28          7.0370   -13.5230     4.5750 c3         1 5NQ      -0.031400
     33 C29          7.5410   -14.9530     4.3680 c3         1 5NQ      -0.027400
     34 C30          8.1000   -15.4930     5.6860 c3         1 5NQ       0.006900
     35 H1          -0.3610     0.8850     0.5100 hc         1 5NQ       0.001033
     36 H2          -0.3610    -0.0010    -1.0210 hc         1 5NQ       0.001033
     37 H3          -0.3610    -0.8840     0.5110 hc         1 5NQ       0.001033
     38 H4           1.8910    -0.8840    -0.5110 hc         1 5NQ       0.014700
     39 H5           1.8910     0.8840    -0.5110 hc         1 5NQ       0.014700
     40 H6           1.6800     0.8850     1.9520 hc         1 5NQ       0.026200
     41 H7           1.6790    -0.8840     1.9530 hc         1 5NQ       0.026200
     42 H8           3.9310    -0.8860     0.9320 h1         1 5NQ       0.048200
     43 H9           3.9320     0.8830     0.9310 h1         1 5NQ       0.048200
     44 H10          4.8790     2.0910     5.1660 hn         1 5NQ       0.208500
     45 H11          5.8650    -3.9250     6.3490 h1         1 5NQ       0.059200
     46 H12          6.0520    -2.2540     6.8980 h1         1 5NQ       0.059200
     47 H13          4.4320    -2.8180     8.4040 hc         1 5NQ       0.017367
     48 H14          3.8770    -4.1920     7.4380 hc         1 5NQ       0.017367
     49 H15          3.3320    -2.5550     7.0430 hc         1 5NQ       0.017367
     50 H16          3.7440    -5.1090     3.4380 h1         1 5NQ       0.063700
     51 H17          4.3540    -5.1350     5.0980 h1         1 5NQ       0.063700
     52 H18          8.1430   -11.3200     1.7480 hc         1 5NQ       0.032033
     53 H19          8.6440    -9.7760     2.4500 hc         1 5NQ       0.032033
     54 H20          8.7670   -11.2620     3.4020 hc         1 5NQ       0.032033
     55 H21          3.8510   -13.2430     3.4670 hc         1 5NQ       0.025033
     56 H22          4.0960   -12.9600     5.1960 hc         1 5NQ       0.025033
     57 H23          2.7650   -12.1610     4.3490 hc         1 5NQ       0.025033
     58 H24          7.2610   -12.9860     2.5060 hc         1 5NQ       0.031200
     59 H25          5.6600   -13.6130     2.9270 hc         1 5NQ       0.031200
     60 H26          6.2550   -13.5210     5.3250 hc         1 5NQ       0.020700
     61 H27          7.8560   -12.8960     4.9040 hc         1 5NQ       0.020700
     62 H28          6.7220   -15.5810     4.0390 hc         1 5NQ       0.013200
     63 H29          8.3220   -14.9550     3.6170 hc         1 5NQ       0.013200
     64 H30          7.3080   -15.5300     6.4250 hc         1 5NQ       0.002700
     65 H31          8.4950   -16.4890     5.5300 hc         1 5NQ       0.002700
     66 H32          8.8910   -14.8410     6.0370 hc         1 5NQ       0.002700
@<TRIPOS>BOND
     1     1     2 1   
     2     1    35 1   
     3     1    36 1   
     4     1    37 1   
     5     2     3 1   
     6     2    38 1   
     7     2    39 1   
     8     3     4 1   
     9     3    40 1   
    10     3    41 1   
    11     4     5 1   
    12     4    42 1   
    13     4    43 1   
    14     5     6 1   
    15     5    15 1   
    16     6     7 2   
    17     6     8 1   
    18     8     9 1   
    19     8    44 1   
    20     9    10 2   
    21     9    11 1   
    22    11    12 1   
    23    11    15 2   
    24    12    13 1   
    25    12    17 1   
    26    13    14 1   
    27    13    45 1   
    28    13    46 1   
    29    14    47 1   
    30    14    48 1   
    31    14    49 1   
    32    15    16 1   
    33    16    17 2   
    34    17    18 1   
    35    18    19 1   
    36    18    50 1   
    37    18    51 1   
    38    19    20 1   
    39    20    21 1   
    40    20    22 2   
    41    21    26 2   
    42    22    23 1   
    43    23    24 1   
    44    23    26 1   
    45    24    25 1   
    46    24    30 2   
    47    25    52 1   
    48    25    53 1   
    49    25    54 1   
    50    26    27 1   
    51    27    28 2   
    52    28    29 1   
    53    28    30 1   
    54    29    55 1   
    55    29    56 1   
    56    29    57 1   
    57    30    31 1   
    58    31    32 1   
    59    31    58 1   
    60    31    59 1   
    61    32    33 1   
    62    32    60 1   
    63    32    61 1   
    64    33    34 1   
    65    33    62 1   
    66    33    63 1   
    67    34    64 1   
    68    34    65 1   
    69    34    66 1   
@<TRIPOS>SUBSTRUCTURE
     1 5NQ         1 TEMP              0 ****  ****    0 ROOT
