@<TRIPOS>MOLECULE
molecule
   66    69     1     0     0
SMALL
bcc


@<TRIPOS>ATOM
      1 C1           0.0000     0.0000     0.0000 c3         1 5NQ      -0.090100
      2 C2           1.5300     0.0000     0.0000 c3         1 5NQ      -0.081400
      3 C3           2.0400     0.0000     1.4420 c3         1 5NQ      -0.103400
      4 C4           3.5700    -0.0010     1.4420 c3         1 5NQ       0.115000
      5 N5           4.0590    -0.0010     2.8230 n          1 5NQ      -0.420300
      6 C6           4.2790     1.1650     3.4580 c          1 5NQ       0.818500
      7 O31          4.0660     2.2090     2.8710 o          1 5NQ      -0.654500
      8 N7           4.7270     1.2050     4.7250 ns         1 5NQ      -0.556500
      9 C8           4.9740     0.0710     5.4110 c          1 5NQ       0.750100
     10 O32          5.3790     0.1190     6.5590 o          1 5NQ      -0.638500
     11 C9           4.7570    -1.1750     4.7830 cc         1 5NQ      -0.358200
     12 N11          4.9000    -2.4930     5.1690 na         1 5NQ      -0.121900
     13 C33          5.3630    -2.9730     6.4720 c3         1 5NQ       0.031300
     14 C34          4.1630    -3.1470     7.4080 c3         1 5NQ      -0.112100
     15 C10          4.2890    -1.2020     3.4750 cd         1 5NQ       0.502200
     16 N13          4.1650    -2.4850     3.1250 nd         1 5NQ      -0.708000
     17 C12          4.5330    -3.2530     4.1190 cc         1 5NQ       0.467800
     18 C14          4.5290    -4.7590     4.0970 c3         1 5NQ      -0.029600
     19 S15          6.1330    -5.3590     3.4990 ss         1 5NQ      -0.109300
     20 C16          5.9430    -7.1110     3.5420 cc         1 5NQ       0.590200
     21 N20          4.8460    -7.7560     3.9350 nc         1 5NQ      -0.462300
     22 N17          6.8620    -7.9860     3.1860 nd         1 5NQ      -0.589100
     23 N18          6.3090    -9.2590     3.3720 na         1 5NQ       0.022200
     24 C21          6.7850   -10.5170     3.1770 cd         1 5NQ       0.067400
     25 C26          8.1830   -10.7340     2.6580 c3         1 5NQ      -0.058800
     26 C19          5.0410    -9.0670     3.8440 cd         1 5NQ       0.466500
     27 N24          4.2580   -10.1160     4.1200 nd         1 5NQ      -0.677000
     28 C23          4.6890   -11.3440     3.9430 cc         1 5NQ       0.502600
     29 C25          3.7870   -12.5090     4.2610 c3         1 5NQ      -0.145400
     30 C22          5.9820   -11.5760     3.4600 cc         1 5NQ      -0.275600
     31 C27          6.4790   -12.9840     3.2560 c3         1 5NQ      -0.023100
     32 C28          7.0370   -13.5230     4.5750 c3         1 5NQ      -0.080400
     33 C29          7.5410   -14.9530     4.3680 c3         1 5NQ      -0.085400
     34 C30          8.1000   -15.4930     5.6860 c3         1 5NQ      -0.091100
     35 H1          -0.3610     0.8850     0.5100 hc         1 5NQ       0.034700
     36 H2          -0.3610    -0.0010    -1.0210 hc         1 5NQ       0.034700
     37 H3          -0.3610    -0.8840     0.5110 hc         1 5NQ       0.034700
     38 H4           1.8910    -0.8840    -0.5110 hc         1 5NQ       0.042700
     39 H5           1.8910     0.8840    -0.5110 hc         1 5NQ       0.042700
     40 H6           1.6800     0.8850     1.9520 hc         1 5NQ       0.055200
     41 H7           1.6790    -0.8840     1.9530 hc         1 5NQ       0.055200
     42 H8           3.9310    -0.8860     0.9320 h1         1 5NQ       0.075200
     43 H9           3.9320     0.8830     0.9310 h1         1 5NQ       0.075200
     44 H10          4.8790     2.0910     5.1660 hn         1 5NQ       0.370500
     45 H11          5.8650    -3.9250     6.3490 h1         1 5NQ       0.081200
     46 H12          6.0520    -2.2540     6.8980 h1         1 5NQ       0.081200
     47 H13          4.4320    -2.8180     8.4040 hc         1 5NQ       0.052033
     48 H14          3.8770    -4.1920     7.4380 hc         1 5NQ       0.052033
     49 H15          3.3320    -2.5550     7.0430 hc         1 5NQ       0.052033
     50 H16          3.7440    -5.1090     3.4380 h1         1 5NQ       0.102200
     51 H17          4.3540    -5.1350     5.0980 h1         1 5NQ       0.102200
     52 H18          8.1430   -11.3200     1.7480 hc         1 5NQ       0.069367
     53 H19          8.6440    -9.7760     2.4500 hc         1 5NQ       0.069367
     54 H20          8.7670   -11.2620     3.4020 hc         1 5NQ       0.069367
     55 H21          3.8510   -13.2430     3.4670 hc         1 5NQ       0.063700
     56 H22          4.0960   -12.9600     5.1960 hc         1 5NQ       0.063700
     57 H23          2.7650   -12.1610     4.3490 hc         1 5NQ       0.063700
     58 H24          7.2610   -12.9860     2.5060 hc         1 5NQ       0.055700
     59 H25          5.6600   -13.6130     2.9270 hc         1 5NQ       0.055700
     60 H26          6.2550   -13.5210     5.3250 hc         1 5NQ       0.046700
     61 H27          7.8560   -12.8960     4.9040 hc         1 5NQ       0.046700
     62 H28          6.7220   -15.5810     4.0390 hc         1 5NQ       0.041700
     63 H29          8.3220   -14.9550     3.6170 hc         1 5NQ       0.041700
     64 H30          7.3080   -15.5300     6.4250 hc         1 5NQ       0.035700
     65 H31          8.4950   -16.4890     5.5300 hc         1 5NQ       0.035700
     66 H32          8.8910   -14.8410     6.0370 hc         1 5NQ       0.035700
@<TRIPOS>BOND
     1    34    33 1
     2    33    32 1
     3    32    31 1
     4    31    30 1
     5    29    28 1
     6    30    28 1
     7    30    24 2
     8    28    27 2
     9    25    24 1
    10    24    23 1
    11    27    26 1
    12    23    26 1
    13    23    22 1
    14    26    21 2
    15     1     2 1
    16    22    20 2
    17    21    20 1
    18     2     3 1
    19    20    19 1
    20     3     4 1
    21    18    19 1
    22    18    17 1
    23     4     5 1
    24    16    17 2
    25    16    15 1
    26    17    12 1
    27     5    15 1
    28     5     6 1
    29    15    11 2
    30    12    11 1
    31    12    13 1
    32    11     9 1
    33     6     7 2
    34     6     8 1
    35    13    14 1
    36     8     9 1
    37     9    10 2
    38     1    35 1
    39     1    36 1
    40     1    37 1
    41     2    38 1
    42     2    39 1
    43     3    40 1
    44     3    41 1
    45     4    42 1
    46     4    43 1
    47     8    44 1
    48    13    45 1
    49    13    46 1
    50    14    47 1
    51    14    48 1
    52    14    49 1
    53    18    50 1
    54    18    51 1
    55    25    52 1
    56    25    53 1
    57    25    54 1
    58    29    55 1
    59    29    56 1
    60    29    57 1
    61    31    58 1
    62    31    59 1
    63    32    60 1
    64    32    61 1
    65    33    62 1
    66    33    63 1
    67    34    64 1
    68    34    65 1
    69    34    66 1
@<TRIPOS>SUBSTRUCTURE
     1 5NQ         1 TEMP              0 ****  ****    0 ROOT
