@<TRIPOS>MOLECULE
5NR
   39    40     1     0     0
SMALL
bcc


@<TRIPOS>ATOM
      1 C4           0.0000     0.0000     0.0000 ca         1 5NR      -0.090500
      2 C14         -0.1040    -2.8100     7.2360 c3         1 5NR       0.129800
      3 C5           1.3820     0.0000     0.0000 ca         1 5NR      -0.091000
      4 C6           2.0730     0.0000     1.1970 ca         1 5NR      -0.090500
      5 C7          -0.7550    -0.0090     3.6980 c3         1 5NR       0.038900
      6 C8          -1.0160    -1.4520     4.1360 c3         1 5NR      -0.046700
      7 C9          -1.8880    -1.4550     5.3940 c3         1 5NR      -0.071400
      8 C10         -2.0950    -2.8970     5.8620 c3         1 5NR       0.151800
      9 C12          0.0450    -3.5640     4.9410 c3         1 5NR       0.151800
     10 C13          0.3160    -2.1410     4.4460 c3         1 5NR      -0.071400
     11 C3          -0.6920    -0.0020     1.1970 ca         1 5NR      -0.102000
     12 C1           1.3810    -0.0010     2.3940 ca         1 5NR      -0.102000
     13 C2          -0.0010    -0.0080     2.3930 ca         1 5NR      -0.105300
     14 N11         -0.7920    -3.5130     6.1450 n3         1 5NR      -0.524600
     15 C15          1.1210    -3.6160     7.6700 c3         1 5NR      -0.069200
     16 N16          1.8100    -2.9120     8.7610 nz         1 5NR       0.091400
     17 H1          -0.5410     0.0020    -0.9380 ha         1 5NR       0.108000
     18 H2          -0.7780    -2.6970     8.0760 h1         1 5NR       0.034200
     19 H3           0.2110    -1.8320     6.8920 h1         1 5NR       0.034200
     20 H4           1.9240     0.0010    -0.9380 ha         1 5NR       0.111000
     21 H5           3.1560     0.0030     1.1980 ha         1 5NR       0.108000
     22 H6          -1.6990     0.5060     3.5700 hc         1 5NR       0.021700
     23 H7          -0.1680     0.4970     4.4550 hc         1 5NR       0.021700
     24 H8          -1.5240    -1.9890     3.3440 hc         1 5NR       0.050700
     25 H9          -2.8490    -1.0090     5.1680 hc         1 5NR       0.027450
     26 H10         -1.3960    -0.8900     6.1760 hc         1 5NR       0.027450
     27 H11         -2.6980    -2.9000     6.7620 h1         1 5NR       0.035700
     28 H12         -2.5970    -3.4590     5.0830 h1         1 5NR       0.035700
     29 H13          0.9850    -4.0480     5.1760 h1         1 5NR       0.035700
     30 H14         -0.4710    -4.1210     4.1680 h1         1 5NR       0.035700
     31 H15          0.9190    -2.1810     3.5460 hc         1 5NR       0.027450
     32 H16          0.8400    -1.5860     5.2140 hc         1 5NR       0.027450
     33 H17         -1.7750    -0.0020     1.1960 ha         1 5NR       0.101500
     34 H18          1.9220    -0.0010     3.3330 ha         1 5NR       0.101500
     35 H20          1.7960    -3.7290     6.8310 hx         1 5NR       0.094700
     36 H21          0.8060    -4.5940     8.0140 hx         1 5NR       0.094700
     37 H22          1.2080    -2.8640     9.5590 hn         1 5NR       0.221467
     38 H23          2.6450    -3.4070     9.0020 hn         1 5NR       0.221467
     39 H163         2.0450    -1.9860     8.4640 hn         1 5NR       0.221467
@<TRIPOS>BOND
     1     1     3 ar  
     2     1    11 ar  
     3     1    17 1   
     4     2    14 1   
     5     2    15 1   
     6     2    18 1   
     7     2    19 1   
     8     3     4 ar  
     9     3    20 1   
    10     4    12 ar  
    11     4    21 1   
    12     5     6 1   
    13     5    13 1   
    14     5    22 1   
    15     5    23 1   
    16     6     7 1   
    17     6    10 1   
    18     6    24 1   
    19     7     8 1   
    20     7    25 1   
    21     7    26 1   
    22     8    14 1   
    23     8    27 1   
    24     8    28 1   
    25     9    10 1   
    26     9    14 1   
    27     9    29 1   
    28     9    30 1   
    29    10    31 1   
    30    10    32 1   
    31    11    13 ar  
    32    11    33 1   
    33    12    13 ar  
    34    12    34 1   
    35    15    16 1   
    36    15    35 1   
    37    15    36 1   
    38    16    37 1   
    39    16    38 1   
    40    16    39 1   
@<TRIPOS>SUBSTRUCTURE
     1 5NR         1 TEMP              0 ****  ****    0 ROOT
