@<TRIPOS>MOLECULE
molecule
   39    40     1     0     0
SMALL
bcc


@<TRIPOS>ATOM
      1 C4           0.0000     0.0000     0.0000 ca         1 5NR      -0.120000
      2 C14         -0.1040    -2.8100     7.2360 c3         1 5NR       0.131800
      3 C5           1.3820     0.0000     0.0000 ca         1 5NR      -0.120000
      4 C6           2.0730     0.0000     1.1970 ca         1 5NR      -0.120000
      5 C7          -0.7550    -0.0090     3.6980 c3         1 5NR      -0.028100
      6 C8          -1.0160    -1.4520     4.1360 c3         1 5NR      -0.066700
      7 C9          -1.8880    -1.4550     5.3940 c3         1 5NR      -0.121900
      8 C10         -2.0950    -2.8970     5.8620 c3         1 5NR       0.155300
      9 C12          0.0450    -3.5640     4.9410 c3         1 5NR       0.155300
     10 C13          0.3160    -2.1410     4.4460 c3         1 5NR      -0.121900
     11 C3          -0.6920    -0.0020     1.1970 ca         1 5NR      -0.128000
     12 C1           1.3810    -0.0010     2.3940 ca         1 5NR      -0.128000
     13 C2          -0.0010    -0.0080     2.3930 ca         1 5NR      -0.095300
     14 N11         -0.7920    -3.5130     6.1450 n3         1 5NR      -0.710600
     15 C15          1.1210    -3.6160     7.6700 c3         1 5NR       0.085800
     16 N16          1.8100    -2.9120     8.7610 nz         1 5NR      -0.809600
     17 H1          -0.5410     0.0020    -0.9380 ha         1 5NR       0.136500
     18 H2          -0.7780    -2.6970     8.0760 h1         1 5NR       0.056700
     19 H3           0.2110    -1.8320     6.8920 h1         1 5NR       0.056700
     20 H4           1.9240     0.0010    -0.9380 ha         1 5NR       0.139000
     21 H5           3.1560     0.0030     1.1980 ha         1 5NR       0.136500
     22 H6          -1.6990     0.5060     3.5700 hc         1 5NR       0.051700
     23 H7          -0.1680     0.4970     4.4550 hc         1 5NR       0.051700
     24 H8          -1.5240    -1.9890     3.3440 hc         1 5NR       0.073700
     25 H9          -2.8490    -1.0090     5.1680 hc         1 5NR       0.051200
     26 H10         -1.3960    -0.8900     6.1760 hc         1 5NR       0.051200
     27 H11         -2.6980    -2.9000     6.7620 h1         1 5NR       0.068950
     28 H12         -2.5970    -3.4590     5.0830 h1         1 5NR       0.068950
     29 H13          0.9850    -4.0480     5.1760 h1         1 5NR       0.068950
     30 H14         -0.4710    -4.1210     4.1680 h1         1 5NR       0.068950
     31 H15          0.9190    -2.1810     3.5460 hc         1 5NR       0.051200
     32 H16          0.8400    -1.5860     5.2140 hc         1 5NR       0.051200
     33 H17         -1.7750    -0.0020     1.1960 ha         1 5NR       0.125000
     34 H18          1.9220    -0.0010     3.3330 ha         1 5NR       0.125000
     35 H20          1.7960    -3.7290     6.8310 hx         1 5NR       0.120200
     36 H21          0.8060    -4.5940     8.0140 hx         1 5NR       0.120200
     37 H22          1.2080    -2.8640     9.5590 hn         1 5NR       0.456467
     38 H23          2.6450    -3.4070     9.0020 hn         1 5NR       0.456467
     39 H163         2.0450    -1.9860     8.4640 hn         1 5NR       0.456467
@<TRIPOS>BOND
     1     3     1 ar
     2     3     4 ar
     3     1    11 ar
     4     4    12 ar
     5    11    13 ar
     6    12    13 ar
     7    13     5 1
     8     5     6 1
     9     6     7 1
    10     6    10 1
    11     7     8 1
    12     8    14 1
    13    15    16 1
    14    15     2 1
    15    10     9 1
    16     9    14 1
    17    14     2 1
    18     1    17 1
    19     2    18 1
    20     2    19 1
    21     3    20 1
    22     4    21 1
    23     5    22 1
    24     5    23 1
    25     6    24 1
    26     7    25 1
    27     7    26 1
    28     8    27 1
    29     8    28 1
    30     9    29 1
    31     9    30 1
    32    10    31 1
    33    10    32 1
    34    11    33 1
    35    12    34 1
    36    15    35 1
    37    15    36 1
    38    16    37 1
    39    16    38 1
    40    39    16 1
@<TRIPOS>SUBSTRUCTURE
     1 5NR         1 TEMP              0 ****  ****    0 ROOT
