@<TRIPOS>MOLECULE
molecule
   23    24     1     0     0
SMALL
bcc


@<TRIPOS>ATOM
      1 C1           0.0000     0.0000     0.0000 ca         1 5NS      -0.047000
      2 C2           1.3930     0.0000     0.0000 ca         1 5NS      -0.157000
      3 C3           2.0930     0.0000     1.1680 ca         1 5NS      -0.106000
      4 C4           1.4060    -0.0010     2.3910 ca         1 5NS      -0.065000
      5 C5          -0.0110    -0.0000     2.3920 ca         1 5NS       0.037000
      6 C6          -0.7010     0.0060     1.1670 ca         1 5NS      -0.241500
      7 C9          -0.0080     0.0010     4.7880 ca         1 5NS      -0.152000
      8 C10         -0.7010     0.0010     3.6160 ca         1 5NS      -0.102000
      9 O14         -2.9160    -1.4340     1.3400 o          1 5NS      -0.709200
     10 S11         -2.4620     0.0060     1.1420 s6         1 5NS       1.328100
     11 O12         -2.8790     0.7200     2.2980 o          1 5NS      -0.709200
     12 O13         -2.8450     0.3710    -0.1760 o          1 5NS      -0.709200
     13 C8           1.3830    -0.0000     4.8000 ca         1 5NS      -0.155000
     14 C7           2.0980    -0.0010     3.6210 ca         1 5NS       0.140600
     15 N15          3.4910    -0.0020     3.6440 nv         1 5NS      -0.987200
     16 H1          -0.5340    -0.0000    -0.9430 ha         1 5NS       0.148000
     17 H2           1.9270    -0.0050    -0.9430 ha         1 5NS       0.107000
     18 H3           3.1770    -0.0000     1.1520 ha         1 5NS       0.115000
     19 H9          -0.5490     0.0010     5.7270 ha         1 5NS       0.116000
     20 H10         -1.7850     0.0020     3.6260 ha         1 5NS       0.209000
     21 H8           1.9110    -0.0010     5.7460 ha         1 5NS       0.110000
     22 HN15         3.9910     0.8640     3.6720 hn         1 5NS       0.413800
     23 HN1A         3.9900    -0.8690     3.6720 hn         1 5NS       0.413800
@<TRIPOS>BOND
     1     6     1 ar  
     2     1     2 ar  
     3     1    16 1   
     4     2     3 ar  
     5     2    17 1   
     6     4     3 ar  
     7     3    18 1   
     8     5     4 ar  
     9     4    14 ar  
    10     6     5 ar  
    11     8     5 ar  
    12    10     6 1   
    13     8     7 ar  
    14     7    13 ar  
    15     7    19 1   
    16     8    20 1   
    17     9    10 1   
    18    12    10 1   
    19    11    10 1   
    20    13    14 ar  
    21    13    21 1   
    22    14    15 1   
    23    15    22 1   
    24    15    23 1   
@<TRIPOS>SUBSTRUCTURE
     1 5NS         1 TEMP              0 ****  ****    0 ROOT
