@<TRIPOS>MOLECULE
5NT
   35    37     1     0     0
SMALL
bcc


@<TRIPOS>ATOM
      1 O2           0.0000     0.0000     0.0000 o          1 5NT      -0.629500
      2 C10          1.2200     0.0000     0.0000 c          1 5NT       0.653100
      3 N4           1.9120     0.0000     1.1600 ns         1 5NT       0.007600
      4 C            3.2760    -0.0010     1.1520 cc         1 5NT      -0.073200
      5 N            3.9500    -0.0010     2.3490 nz         1 5NT       0.231400
      6 C9           1.9380    -0.0050    -1.2100 cc         1 5NT      -0.387900
      7 C1           3.3380    -0.0050    -1.1610 cd         1 5NT      -0.000600
      8 N1           3.9610     0.0000     0.0340 nd         1 5NT      -0.296100
      9 N3           1.5760    -0.0110    -2.5410 na         1 5NT       0.547900
     10 C8           2.7050    -0.0140    -3.3010 cc         1 5NT      -0.271300
     11 C2           3.7880    -0.0100    -2.4990 cd         1 5NT      -0.056300
     12 C3           5.2260    -0.0120    -2.9510 c3         1 5NT       0.179800
     13 C7           5.7620    -1.4550    -2.9910 c3         1 5NT       0.187100
     14 O1           6.8830    -1.5920    -2.1170 oh         1 5NT      -0.580800
     15 C6           6.1940    -1.6850    -4.4580 c3         1 5NT      -0.049400
     16 C4           6.4090    -0.2440    -4.9850 c3         1 5NT       0.113500
     17 N2           5.3240     0.5300    -4.3230 n7         1 5NT      -0.579200
     18 C5           6.2550    -0.1980    -6.5070 c3         1 5NT       0.233400
     19 O            6.5730     1.1130    -6.9780 oh         1 5NT      -0.596800
     20 H1           1.4200     0.0000     2.0320 hn         1 5NT       0.186500
     21 H2           3.7400     0.8390     2.8510 hn         1 5NT       0.212133
     22 H3           3.6670    -0.7940     2.8910 hn         1 5NT       0.212133
     23 H4           0.6380    -0.0130    -2.8890 hn         1 5NT       0.137700
     24 H5           2.7290    -0.0180    -4.3840 h4         1 5NT       0.188000
     25 H6           5.8300     0.5850    -2.2780 h1         1 5NT       0.041700
     26 H7           4.9790    -2.1520    -2.7190 h1         1 5NT       0.005700
     27 H8           6.8500    -2.4340    -1.6930 ho         1 5NT       0.393000
     28 H9           7.1180    -2.2490    -4.5000 hc         1 5NT       0.037200
     29 H10          5.4070    -2.1810    -5.0130 hc         1 5NT       0.037200
     30 H11          7.3800     0.1290    -4.6820 h1         1 5NT       0.038700
     31 H12          5.5810     1.4970    -4.2830 hn         1 5NT       0.274800
     32 H14          6.9270    -0.9170    -6.9590 h1         1 5NT      -0.005300
     33 H15          5.2340    -0.4410    -6.7740 h1         1 5NT      -0.005300
     34 H16          6.5900     1.1120    -7.9210 ho         1 5NT       0.401000
     35 HN3          4.9350    -0.0510     2.1770 hn         1 5NT       0.212133
@<TRIPOS>BOND
     1     1     2 2   
     2     2     3 1   
     3     2     6 1   
     4     3     4 1   
     5     3    20 1   
     6     4     5 1   
     7     4     8 2   
     8     5    21 1   
     9     5    22 1   
    10     5    35 1   
    11     6     7 2   
    12     6     9 1   
    13     7     8 1   
    14     7    11 1   
    15     9    10 1   
    16     9    23 1   
    17    10    11 2   
    18    10    24 1   
    19    11    12 1   
    20    12    13 1   
    21    12    17 1   
    22    12    25 1   
    23    13    14 1   
    24    13    15 1   
    25    13    26 1   
    26    14    27 1   
    27    15    16 1   
    28    15    28 1   
    29    15    29 1   
    30    16    17 1   
    31    16    18 1   
    32    16    30 1   
    33    17    31 1   
    34    18    19 1   
    35    18    32 1   
    36    18    33 1   
    37    19    34 1   
@<TRIPOS>SUBSTRUCTURE
     1 5NT         1 TEMP              0 ****  ****    0 ROOT
