@<TRIPOS>MOLECULE
molecule
   35    37     1     0     0
SMALL
bcc


@<TRIPOS>ATOM
      1 O2           0.0000     0.0000     0.0000 o          1 5NT      -0.579500
      2 C10          1.2200     0.0000     0.0000 c          1 5NT       0.735100
      3 N4           1.9120     0.0000     1.1600 ns         1 5NT      -0.465400
      4 C            3.2760    -0.0010     1.1520 cc         1 5NT       0.408800
      5 N            3.9500    -0.0010     2.3490 nz         1 5NT      -0.722600
      6 C9           1.9380    -0.0050    -1.2100 cc         1 5NT      -0.180900
      7 C1           3.3380    -0.0050    -1.1610 cd         1 5NT       0.091400
      8 N1           3.9610     0.0000     0.0340 nd         1 5NT      -0.504100
      9 N3           1.5760    -0.0110    -2.5410 na         1 5NT      -0.088100
     10 C8           2.7050    -0.0140    -3.3010 cc         1 5NT      -0.056300
     11 C2           3.7880    -0.0100    -2.4990 cd         1 5NT      -0.093300
     12 C3           5.2260    -0.0120    -2.9510 c3         1 5NT       0.214800
     13 C7           5.7620    -1.4550    -2.9910 c3         1 5NT       0.142100
     14 O1           6.8830    -1.5920    -2.1170 oh         1 5NT      -0.600800
     15 C6           6.1940    -1.6850    -4.4580 c3         1 5NT      -0.101400
     16 C4           6.4090    -0.2440    -4.9850 c3         1 5NT       0.158500
     17 N2           5.3240     0.5300    -4.3230 n7         1 5NT      -0.803200
     18 C5           6.2550    -0.1980    -6.5070 c3         1 5NT       0.152400
     19 O            6.5730     1.1130    -6.9780 oh         1 5NT      -0.612800
     20 H1           1.4200     0.0000     2.0320 hn         1 5NT       0.347500
     21 H2           3.7400     0.8390     2.8510 hn         1 5NT       0.474467
     22 H3           3.6670    -0.7940     2.8910 hn         1 5NT       0.474467
     23 H4           0.6380    -0.0130    -2.8890 hn         1 5NT       0.338700
     24 H5           2.7290    -0.0180    -4.3840 h4         1 5NT       0.222000
     25 H6           5.8300     0.5850    -2.2780 h1         1 5NT       0.070700
     26 H7           4.9790    -2.1520    -2.7190 h1         1 5NT       0.042700
     27 H8           6.8500    -2.4340    -1.6930 ho         1 5NT       0.407000
     28 H9           7.1180    -2.2490    -4.5000 hc         1 5NT       0.067700
     29 H10          5.4070    -2.1810    -5.0130 hc         1 5NT       0.067700
     30 H11          7.3800     0.1290    -4.6820 h1         1 5NT       0.063700
     31 H12          5.5810     1.4970    -4.2830 hn         1 5NT       0.375800
     32 H14          6.9270    -0.9170    -6.9590 h1         1 5NT       0.032700
     33 H15          5.2340    -0.4410    -6.7740 h1         1 5NT       0.032700
     34 H16          6.5900     1.1120    -7.9210 ho         1 5NT       0.413000
     35 HN3          4.9350    -0.0510     2.1770 hn         1 5NT       0.474467
@<TRIPOS>BOND
     1    19    18 1   
     2    18    16 1   
     3    16    15 1   
     4    16    17 1   
     5    15    13 1   
     6    17    12 1   
     7    13    14 1   
     8    13    12 1   
     9    12    11 1   
    10    10    11 2   
    11    10     9 1   
    12    11     7 1   
    13     9     6 1   
    14     7     6 2   
    15     7     8 1   
    16     6     2 1   
    17     8     4 2   
    18     2     1 2   
    19     2     3 1   
    20     4     3 1   
    21     4     5 1   
    22     3    20 1   
    23     5    21 1   
    24     5    22 1   
    25     9    23 1   
    26    10    24 1   
    27    12    25 1   
    28    13    26 1   
    29    14    27 1   
    30    15    28 1   
    31    15    29 1   
    32    16    30 1   
    33    17    31 1   
    34    18    32 1   
    35    18    33 1   
    36    19    34 1   
    37    35     5 1   
@<TRIPOS>SUBSTRUCTURE
     1 5NT         1 TEMP              0 ****  ****    0 ROOT
