@<TRIPOS>MOLECULE
molecule
   14    14     1     0     0
SMALL
bcc


@<TRIPOS>ATOM
      1 O4           0.0000     0.0000     0.0000 o          1 5NU      -0.556500
      2 C4           1.2180     0.0000     0.0000 c          1 5NU       0.707700
      3 N3           1.8970     0.0000     1.1640 ns         1 5NU      -0.557500
      4 C2           3.2440    -0.0000     1.1630 c          1 5NU       0.801500
      5 O2           3.8440    -0.0000     2.2210 o          1 5NU      -0.620500
      6 N1           3.9340     0.0000     0.0090 ns         1 5NU      -0.440100
      7 C6           3.2820     0.0010    -1.1940 cc         1 5NU       0.120600
      8 C5           1.9320    -0.0050    -1.2220 cd         1 5NU      -0.343300
      9 N51          1.2080    -0.0100    -2.5140 no         1 5NU       0.305100
     10 O53          1.8310    -0.0140    -3.5600 o          1 5NU      -0.185500
     11 O52         -0.0090    -0.0100    -2.5300 o          1 5NU      -0.185500
     12 H1           1.3990     0.0000     2.0330 hn         1 5NU       0.380500
     13 H2           3.8450    -0.0010    -2.1190 h4         1 5NU       0.199000
     14 H4           4.9350     0.0020     0.0300 hn         1 5NU       0.374500
@<TRIPOS>BOND
     1    11     9 1
     2    10     9 1
     3     9     8 1
     4     1     2 2
     5     8     2 1
     6     8     7 2
     7     2     3 1
     8     7     6 1
     9     3     4 1
    10     6     4 1
    11     4     5 2
    12     3    12 1
    13     7    13 1
    14     6    14 1
@<TRIPOS>SUBSTRUCTURE
     1 5NU         1 TEMP              0 ****  ****    0 ROOT
