@<TRIPOS>MOLECULE
5NV
   46    49     1     0     0
SMALL
bcc


@<TRIPOS>ATOM
      1 C4           0.0000     0.0000     0.0000 cc         1 5NV       0.327200
      2 C5           1.3890     0.0000     0.0000 cd         1 5NV      -0.546200
      3 C6           2.0770     0.0000     1.2340 c          1 5NV       0.675100
      4 C8           0.6500     0.0010    -2.0640 cd         1 5NV       0.230800
      5 N1           1.3680    -0.0010     2.3820 ns         1 5NV      -0.119500
      6 N3          -0.6690     0.0040     1.2130 n          1 5NV       0.003700
      7 CAJ         -2.9070    -2.0580     0.0600 ca         1 5NV      -0.069500
      8 CAK         -3.3730    -3.3590     0.0710 ca         1 5NV      -0.106500
      9 CAL         -3.5770    -4.0110     1.2730 ca         1 5NV      -0.025600
     10 Cl1         -4.1620    -5.6460     1.2860 cl         1 5NV      -0.030400
     11 CAM         -3.3170    -3.3600     2.4650 ca         1 5NV      -0.106500
     12 CAN         -2.8520    -2.0590     2.4540 ca         1 5NV      -0.069500
     13 CAI         -2.6420    -1.4100     1.2520 ca         1 5NV      -0.135300
     14 CAH         -2.1340     0.0090     1.2400 c3         1 5NV       0.092300
     15 C2           0.0250    -0.0010     2.3670 c          1 5NV       0.592500
     16 O2          -0.5800     0.0030     3.4220 o          1 5NV      -0.710500
     17 O6           3.2950    -0.0010     1.2600 o          1 5NV      -0.683500
     18 N7           1.7760     0.0010    -1.3250 na         1 5NV       0.414100
     19 CAT          3.1500     0.0020    -1.8310 c3         1 5NV      -0.077700
     20 CAU          3.6300    -1.4410    -2.0090 c3         1 5NV      -0.012100
     21 N9          -0.3950     0.0000    -1.2760 nc         1 5NV      -0.610000
     22 CAV          0.6000     0.0030    -3.5700 c3         1 5NV       0.098400
     23 SAW          0.5810    -1.7040    -4.1740 ss         1 5NV      -0.381400
     24 CAX          0.5240    -1.4120    -5.9120 cc         1 5NV       0.406800
     25 NBB          0.5050    -0.2340    -6.4990 nd         1 5NV      -0.758000
     26 CBA          0.4610    -0.3930    -7.8250 cd         1 5NV       0.701900
     27 NBC          0.4300     0.6380    -8.7650 nv         1 5NV      -0.500500
     28 NAZ          0.4520    -1.6750    -8.1010 nc         1 5NV      -0.767800
     29 NAY          0.4980    -2.3570    -6.8750 na         1 5NV       0.356600
     30 H1           1.8510    -0.0050     3.2590 hn         1 5NV       0.209500
     31 H2          -2.7440    -1.5480    -0.8820 ha         1 5NV       0.127000
     32 H3          -3.5810    -3.8670    -0.8630 ha         1 5NV       0.116500
     33 H4          -3.4790    -3.8690     3.4080 ha         1 5NV       0.116500
     34 H5          -2.6460    -1.5490     3.3880 ha         1 5NV       0.127000
     35 H6          -2.4760     0.5230     2.1310 h1         1 5NV       0.050700
     36 H7          -2.5090     0.5200     0.3620 h1         1 5NV       0.050700
     37 H8           3.1830     0.5130    -2.7860 h1         1 5NV       0.054700
     38 H9           3.7950     0.5130    -1.1260 h1         1 5NV       0.054700
     39 H10          4.0240    -1.5700    -3.0090 hc         1 5NV       0.021367
     40 H11          4.4070    -1.6540    -1.2840 hc         1 5NV       0.021367
     41 H12          2.7990    -2.1190    -1.8580 hc         1 5NV       0.021367
     42 H13         -0.2960     0.5130    -3.9010 h1         1 5NV       0.065700
     43 H14          1.4720     0.5140    -3.9600 h1         1 5NV       0.065700
     44 H19          0.3840     1.5910    -8.4620 hn         1 5NV       0.274300
     45 H20          0.4690     0.4260    -9.7430 hn         1 5NV       0.274300
     46 H23          0.5040    -3.3490    -6.7410 hn         1 5NV       0.160700
@<TRIPOS>BOND
     1     1     2 2   
     2     1     6 1   
     3     1    21 1   
     4     2     3 1   
     5     2    18 1   
     6     3     5 1   
     7     3    17 2   
     8     4    18 1   
     9     4    21 2   
    10     4    22 1   
    11     5    15 1   
    12     5    30 1   
    13     6    14 1   
    14     6    15 1   
    15     7     8 ar  
    16     7    13 ar  
    17     7    31 1   
    18     8     9 ar  
    19     8    32 1   
    20     9    10 1   
    21     9    11 ar  
    22    11    12 ar  
    23    11    33 1   
    24    12    13 ar  
    25    12    34 1   
    26    13    14 1   
    27    14    35 1   
    28    14    36 1   
    29    15    16 2   
    30    18    19 1   
    31    19    20 1   
    32    19    37 1   
    33    19    38 1   
    34    20    39 1   
    35    20    40 1   
    36    20    41 1   
    37    22    23 1   
    38    22    42 1   
    39    22    43 1   
    40    23    24 1   
    41    24    25 2   
    42    24    29 1   
    43    25    26 1   
    44    26    27 1   
    45    26    28 2   
    46    27    44 1   
    47    27    45 1   
    48    28    29 1   
    49    29    46 1   
@<TRIPOS>SUBSTRUCTURE
     1 5NV         1 TEMP              0 ****  ****    0 ROOT
