@<TRIPOS>MOLECULE
molecule
   58    61     1     0     0
SMALL
bcc


@<TRIPOS>ATOM
      1 C1           0.0000     0.0000     0.0000 ca         1 5NW      -0.271600
      2 N5           1.4120    -0.0000     2.3500 nb         1 5NW      -0.769000
      3 C6          -4.9610     0.9090    -3.2930 ca         1 5NW      -0.151000
      4 C7          -6.2590     0.4090    -3.3700 ca         1 5NW       0.028000
      5 C8          -6.8260    -0.2250    -2.2660 ca         1 5NW      -0.200000
      6 C9          -6.0980    -0.3540    -1.0970 ca         1 5NW       0.105100
      7 C10         -7.9840    -1.4620    -0.1620 c3         1 5NW       0.131700
      8 C11         -7.0380     0.5500    -4.6250 cc         1 5NW      -0.260300
      9 C12         -8.3520     0.0960    -4.8460 cc         1 5NW       0.345200
     10 C13         -6.6110     1.1500    -5.7750 cd         1 5NW      -0.099300
     11 C15          1.4050     0.0000     0.0000 ca         1 5NW      -0.286300
     12 C18          0.2760     0.0010     4.8920 c3         1 5NW       0.248800
     13 C19         -0.6510     0.0000     6.1100 c3         1 5NW      -0.091000
     14 C20         -1.5390     1.2460     6.0770 c3         1 5NW      -0.083433
     15 C21         -1.5290    -1.2530     6.0830 c3         1 5NW      -0.083433
     16 C22          0.1880     0.0070     7.3890 c3         1 5NW      -0.083433
     17 C17          0.0950    -0.0060     2.4290 ca         1 5NW       0.656900
     18 C16          2.0610     0.0000     1.1930 ca         1 5NW       0.453200
     19 C           -0.6760    -0.0000     1.2460 ca         1 5NW       0.329300
     20 N1          -2.0110     0.0060     1.2540 nb         1 5NW      -0.785000
     21 C3          -2.6800     0.0110     0.1160 ca         1 5NW       0.921900
     22 N           -2.0770     0.0110    -1.0730 nb         1 5NW      -0.763000
     23 C2          -0.7650     0.0060    -1.1800 ca         1 5NW       0.501200
     24 N2          -4.0630     0.0170     0.1590 nu         1 5NW      -0.738300
     25 C4          -4.8000     0.1480    -1.0240 ca         1 5NW       0.128600
     26 C5          -4.2360     0.7740    -2.1270 ca         1 5NW      -0.102000
     27 N4          -7.6140     1.0670    -6.6740 na         1 5NW       0.067400
     28 C14         -7.5840     1.5850    -8.0440 c3         1 5NW       0.063600
     29 N3          -8.6900     0.4050    -6.0700 nd         1 5NW      -0.512800
     30 H1          -4.5190     1.4010    -4.1520 ha         1 5NW       0.128000
     31 H2          -7.8350    -0.6140    -2.3230 ha         1 5NW       0.137000
     32 H3          -8.6480    -0.6390    -0.3950 h1         1 5NW       0.041367
     33 H4          -8.0640    -2.2200    -0.9320 h1         1 5NW       0.041367
     34 H5          -8.2600    -1.8890     0.7950 h1         1 5NW       0.041367
     35 H6          -8.9750    -0.4230    -4.1270 h4         1 5NW       0.047100
     36 H7          -5.6870     1.7010    -5.9000 h4         1 5NW       0.174000
     37 H8           1.9570     0.0000    -0.9320 ha         1 5NW       0.136000
     38 H9           0.9040    -0.8810     4.9160 h1         1 5NW       0.052200
     39 H10          0.8970     0.8880     4.9120 h1         1 5NW       0.052200
     40 H11         -2.3430     1.0980     5.3650 hc         1 5NW       0.037811
     41 H12         -1.9560     1.4190     7.0610 hc         1 5NW       0.037811
     42 H13         -0.9470     2.1040     5.7790 hc         1 5NW       0.037811
     43 H14         -0.9350    -2.1030     5.7700 hc         1 5NW       0.037811
     44 H15         -2.3450    -1.1060     5.3860 hc         1 5NW       0.037811
     45 H16         -1.9280    -1.4360     7.0730 hc         1 5NW       0.037811
     46 H17          0.8290    -0.8660     7.4050 hc         1 5NW       0.037811
     47 H18         -0.4680    -0.0100     8.2510 hc         1 5NW       0.037811
     48 H19          0.7970     0.9030     7.4170 hc         1 5NW       0.037811
     49 H20         -1.5280     0.0090     3.7250 hn         1 5NW       0.466800
     50 H21          3.1440     0.0050     1.1980 h4         1 5NW       0.020100
     51 H22         -0.2870     0.0060    -2.1520 h4         1 5NW       0.036100
     52 H23         -4.5360    -0.0400     1.0390 hn         1 5NW       0.474800
     53 H24         -3.2270     1.1640    -2.0700 ha         1 5NW       0.172000
     54 H25         -7.6130     2.6680    -8.0210 h1         1 5NW       0.055367
     55 H26         -6.6740     1.2590    -8.5330 h1         1 5NW       0.055367
     56 H27         -8.4410     1.2120    -8.5900 h1         1 5NW       0.055367
     57 N6          -0.5280    -0.0050     3.6670 nu         1 5NW      -0.891900
     58 O           -6.6500    -0.9720    -0.0170 os         1 5NW      -0.337900
@<TRIPOS>BOND
     1    16    13 1
     2    14    13 1
     3    18     2 ar
     4    18    11 ar
     5     2    17 ar
     6    13    12 1
     7    13    15 1
     8    12    57 1
     9    11     1 ar
    10    17    57 1
    11    17    19 ar
    12     1    19 ar
    13     1    23 ar
    14    19    20 ar
    15    23    22 ar
    16    20    21 ar
    17    22    21 ar
    18    21    24 1
    19    26     3 ar
    20    26    25 ar
    21     3     4 ar
    22    24    25 1
    23    25     6 ar
    24    10     8 2
    25    10    27 1
    26     4     8 1
    27     4     5 ar
    28    28    27 1
    29     8     9 1
    30    27    29 1
    31     6     5 ar
    32     6    58 1
    33    58     7 1
    34     9    29 2
    35     3    30 1
    36     5    31 1
    37     7    32 1
    38     7    33 1
    39     7    34 1
    40     9    35 1
    41    10    36 1
    42    11    37 1
    43    12    38 1
    44    12    39 1
    45    14    40 1
    46    14    41 1
    47    14    42 1
    48    15    43 1
    49    15    44 1
    50    15    45 1
    51    16    46 1
    52    16    47 1
    53    16    48 1
    54    57    49 1
    55    18    50 1
    56    23    51 1
    57    24    52 1
    58    26    53 1
    59    28    54 1
    60    28    55 1
    61    28    56 1
@<TRIPOS>SUBSTRUCTURE
     1 5NW         1 TEMP              0 ****  ****    0 ROOT
