@<TRIPOS>MOLECULE
molecule
   56    60     1     0     0
SMALL
bcc


@<TRIPOS>ATOM
      1 C4           0.0000     0.0000     0.0000 cc         1 5NX       0.203100
      2 C5           1.3990     0.0000     0.0000 cd         1 5NX      -0.190900
      3 C6           2.0770     0.0000     1.2420 c          1 5NX       0.737100
      4 C8           0.7560    -0.0010    -2.0700 cc         1 5NX       0.054400
      5 N1           1.3390     0.0010     2.3740 ns         1 5NX      -0.445400
      6 N3          -0.6630    -0.0000     1.1630 nc         1 5NX      -0.581100
      7 CAL          4.3250    -1.9570    -0.6740 ca         1 5NX      -0.102000
      8 CAU          4.7980    -3.2560    -0.7090 ca         1 5NX       0.026400
      9 Cl           5.5660    -3.9380     0.6920 cl         1 5NX      -0.055400
     10 CAJ          4.6590    -4.0120    -1.8580 ca         1 5NX      -0.068000
     11 CAI          4.0480    -3.4690    -2.9720 ca         1 5NX      -0.102000
     12 CAK          3.5760    -2.1710    -2.9380 ca         1 5NX      -0.104000
     13 CAV          3.7100    -1.4160    -1.7870 ca         1 5NX      -0.174300
     14 N7           1.8000     0.0000    -1.2950 na         1 5NX       0.079900
     15 O6           3.2950    -0.0000     1.2890 o          1 5NX      -0.505500
     16 C2          -0.0220     0.0000     2.3100 cd         1 5NX       0.559800
     17 N9          -0.3810     0.0050    -1.3140 na         1 5NX      -0.005100
     18 CBG         -1.7560     0.0070    -1.8190 c3         1 5NX       0.185800
     19 OAS         -1.7950    -0.4390    -3.1920 os         1 5NX      -0.418600
     20 CBE         -2.3080     1.4530    -1.8920 c3         1 5NX       0.039100
     21 OAG         -2.8730     1.8480    -0.6400 oh         1 5NX      -0.520800
     22 CBD         -3.4060     1.3270    -2.9770 c3         1 5NX       0.055100
     23 OAF         -4.6910     1.1690    -2.3720 oh         1 5NX      -0.553800
     24 CBF         -3.0190     0.0560    -3.7590 c3         1 5NX       0.176100
     25 CAN         -2.8070     0.3990    -5.2350 c3         1 5NX       0.124800
     26 NAQ         -2.5400    -0.8290    -5.9890 nu         1 5NX      -0.752000
     27 CAX         -2.3180    -0.7700    -7.3400 cd         1 5NX       0.024800
     28 CBA         -2.2690     0.3080    -8.3430 c          1 5NX       0.474300
     29 OAD         -2.4100     1.5160    -8.3160 o          1 5NX      -0.463100
     30 CAZ         -1.9770    -0.6930    -9.3990 c          1 5NX       0.477300
     31 OAC         -1.7750    -0.6790   -10.5990 o          1 5NX      -0.423100
     32 CAW         -2.0360    -1.7070    -8.3390 cc         1 5NX      -0.067100
     33 OAE         -1.8800    -3.0490    -8.3320 oh         1 5NX      -0.467100
     34 H1           0.7850    -0.0040    -3.1530 h5         1 5NX       0.286000
     35 H2           1.7950     0.0020     3.2650 hn         1 5NX       0.381500
     36 H3          -1.3030    -0.8280     3.5250 hn         1 5NX       0.499800
     37 H4          -1.3400     0.8060     3.5000 hn         1 5NX       0.499800
     38 H7           3.9410    -4.0600    -3.8740 ha         1 5NX       0.169000
     39 H8           3.0950    -1.7460    -3.8110 ha         1 5NX       0.135000
     40 H11         -2.3950    -0.6120    -1.2020 h2         1 5NX       0.115700
     41 H12         -1.5350     2.1420    -2.2090 h1         1 5NX       0.101700
     42 H13         -3.0460     0.9450    -0.4340 ho         1 5NX       0.397000
     43 H14         -2.8700     2.2050    -3.3160 h1         1 5NX       0.125700
     44 H15         -5.2460     1.8900    -2.6200 ho         1 5NX       0.448000
     45 H16         -3.8400    -0.5920    -3.4750 h1         1 5NX       0.088700
     46 H17         -3.2880     1.2460    -5.7080 h1         1 5NX       0.116200
     47 H18         -3.6510    -0.2040    -4.9220 h1         1 5NX       0.116200
     48 H19         -2.5160    -1.7110    -5.5160 hn         1 5NX       0.464800
     49 H20         -2.5800    -3.4490    -8.8210 ho         1 5NX       0.440000
     50 N2          -0.7450     0.0010     3.4770 nz         1 5NX      -0.743600
     51 CAO          3.1930    -0.0000    -1.7500 c3         1 5NX       0.068600
     52 H5           4.4300    -1.3660     0.2280 ha         1 5NX       0.160000
     53 H9           3.7960     0.5860    -1.0670 h1         1 5NX       0.118700
     54 H10          3.2490     0.4300    -2.7420 h1         1 5NX       0.118700
     55 H23         -0.1280     0.1520     4.2510 hn         1 5NX       0.499800
     56 H6           5.0300    -5.0300    -1.8860 ha         1 5NX       0.176000
@<TRIPOS>BOND
     1    31    30 2
     2    12    11 ar
     3    12    13 ar
     4    11    10 ar
     5    30    28 1
     6    30    32 1
     7    29    28 2
     8    51    13 1
     9    51    14 1
    10    28    27 1
    11    13     7 ar
    12    10     8 ar
    13    32    33 1
    14    32    27 2
    15    15     3 2
    16    27    26 1
    17    14     4 2
    18    14     2 1
    19     7     8 ar
    20     8     9 1
    21     3     2 1
    22     3     5 1
    23     4    17 1
    24    26    25 1
    25     2     1 2
    26     5    16 1
    27    17     1 1
    28    17    18 1
    29     1     6 1
    30    25    24 1
    31    19    18 1
    32    19    24 1
    33    16     6 2
    34    16    50 1
    35    18    20 1
    36    24    22 1
    37    22    20 1
    38    22    23 1
    39    20    21 1
    40     4    34 1
    41     5    35 1
    42    50    36 1
    43    50    37 1
    44     7    52 1
    45    10    56 1
    46    11    38 1
    47    12    39 1
    48    51    53 1
    49    51    54 1
    50    18    40 1
    51    20    41 1
    52    21    42 1
    53    22    43 1
    54    23    44 1
    55    24    45 1
    56    25    46 1
    57    25    47 1
    58    26    48 1
    59    33    49 1
    60    55    50 1
@<TRIPOS>SUBSTRUCTURE
     1 5NX         1 TEMP              0 ****  ****    0 ROOT
