@<TRIPOS>MOLECULE
5NX
   56    60     1     0     0
SMALL
bcc


@<TRIPOS>ATOM
      1 C4           0.0000     0.0000     0.0000 cc         1 5NX      -0.036900
      2 C5           1.3990     0.0000     0.0000 cd         1 5NX      -0.388900
      3 C6           2.0770     0.0000     1.2420 c          1 5NX       0.645100
      4 C8           0.7560    -0.0010    -2.0700 cc         1 5NX      -0.343600
      5 N1           1.3390     0.0010     2.3740 ns         1 5NX       0.045600
      6 N3          -0.6630    -0.0000     1.1630 nc         1 5NX      -0.396100
      7 CAL          4.3250    -1.9570    -0.6740 ca         1 5NX      -0.090000
      8 CAU          4.7980    -3.2560    -0.7090 ca         1 5NX      -0.046600
      9 Cl           5.5660    -3.9380     0.6920 cl         1 5NX       0.040600
     10 CAJ          4.6590    -4.0120    -1.8580 ca         1 5NX      -0.039000
     11 CAI          4.0480    -3.4690    -2.9720 ca         1 5NX      -0.066000
     12 CAK          3.5760    -2.1710    -2.9380 ca         1 5NX      -0.078000
     13 CAV          3.7100    -1.4160    -1.7870 ca         1 5NX      -0.190300
     14 N7           1.8000     0.0000    -1.2950 na         1 5NX       0.681900
     15 O6           3.2950    -0.0000     1.2890 o          1 5NX      -0.543500
     16 C2          -0.0220     0.0000     2.3100 cd         1 5NX       0.098800
     17 N9          -0.3810     0.0050    -1.3140 na         1 5NX       0.537900
     18 CBG         -1.7560     0.0070    -1.8190 c3         1 5NX       0.064800
     19 OAS         -1.7950    -0.4390    -3.1920 os         1 5NX      -0.407600
     20 CBE         -2.3080     1.4530    -1.8920 c3         1 5NX       0.081100
     21 OAG         -2.8730     1.8480    -0.6400 oh         1 5NX      -0.522800
     22 CBD         -3.4060     1.3270    -2.9770 c3         1 5NX       0.088100
     23 OAF         -4.6910     1.1690    -2.3720 oh         1 5NX      -0.534800
     24 CBF         -3.0190     0.0560    -3.7590 c3         1 5NX       0.237100
     25 CAN         -2.8070     0.3990    -5.2350 c3         1 5NX       0.039800
     26 NAQ         -2.5400    -0.8290    -5.9890 nu         1 5NX      -0.296000
     27 CAX         -2.3180    -0.7700    -7.3400 cc         1 5NX      -0.162200
     28 CBA         -2.2690     0.3080    -8.3430 c          1 5NX       0.531300
     29 OAD         -2.4100     1.5160    -8.3160 o          1 5NX      -0.501100
     30 CAZ         -1.9770    -0.6930    -9.3990 c          1 5NX       0.517300
     31 OAC         -1.7750    -0.6790   -10.5990 o          1 5NX      -0.458100
     32 CAW         -2.0360    -1.7070    -8.3390 cd         1 5NX      -0.049100
     33 OAE         -1.8800    -3.0490    -8.3320 oh         1 5NX      -0.444100
     34 H1           0.7850    -0.0040    -3.1530 h5         1 5NX       0.236000
     35 H2           1.7950     0.0020     3.2650 hn         1 5NX       0.217500
     36 H3          -1.3030    -0.8280     3.5250 hn         1 5NX       0.240467
     37 H4          -1.3400     0.8060     3.5000 hn         1 5NX       0.240467
     38 H7           3.9410    -4.0600    -3.8740 ha         1 5NX       0.132000
     39 H8           3.0950    -1.7460    -3.8110 ha         1 5NX       0.107000
     40 H11         -2.3950    -0.6120    -1.2020 h2         1 5NX       0.076700
     41 H12         -1.5350     2.1420    -2.2090 h1         1 5NX       0.058700
     42 H13         -3.0460     0.9450    -0.4340 ho         1 5NX       0.393000
     43 H14         -2.8700     2.2050    -3.3160 h1         1 5NX       0.086700
     44 H15         -5.2460     1.8900    -2.6200 ho         1 5NX       0.432000
     45 H16         -3.8400    -0.5920    -3.4750 h1         1 5NX       0.054700
     46 H17         -3.2880     1.2460    -5.7080 h1         1 5NX       0.073700
     47 H18         -3.6510    -0.2040    -4.9220 h1         1 5NX       0.073700
     48 H19         -2.5160    -1.7110    -5.5160 hn         1 5NX       0.296800
     49 H20         -2.5800    -3.4490    -8.8210 ho         1 5NX       0.420000
     50 N2          -0.7450     0.0010     3.4770 nz         1 5NX       0.194400
     51 CAO          3.1930    -0.0000    -1.7500 c3         1 5NX      -0.032400
     52 H5           4.4300    -1.3660     0.2280 ha         1 5NX       0.136000
     53 H9           3.7960     0.5860    -1.0670 h1         1 5NX       0.086200
     54 H10          3.2490     0.4300    -2.7420 h1         1 5NX       0.086200
     55 H23         -0.1280     0.1520     4.2510 hn         1 5NX       0.240467
     56 H6           5.0300    -5.0300    -1.8860 ha         1 5NX       0.137000
@<TRIPOS>BOND
     1     1     2 2   
     2     1     6 1   
     3     1    17 1   
     4     2     3 1   
     5     2    14 1   
     6     3     5 1   
     7     3    15 2   
     8     4    14 2   
     9     4    17 1   
    10     4    34 1   
    11     5    16 1   
    12     5    35 1   
    13     6    16 2   
    14     7     8 ar  
    15     7    13 ar  
    16     7    52 1   
    17     8     9 1   
    18     8    10 ar  
    19    10    11 ar  
    20    10    56 1   
    21    11    12 ar  
    22    11    38 1   
    23    12    13 ar  
    24    12    39 1   
    25    13    51 1   
    26    14    51 1   
    27    16    50 1   
    28    17    18 1   
    29    18    19 1   
    30    18    20 1   
    31    18    40 1   
    32    19    24 1   
    33    20    21 1   
    34    20    22 1   
    35    20    41 1   
    36    21    42 1   
    37    22    23 1   
    38    22    24 1   
    39    22    43 1   
    40    23    44 1   
    41    24    25 1   
    42    24    45 1   
    43    25    26 1   
    44    25    46 1   
    45    25    47 1   
    46    26    27 1   
    47    26    48 1   
    48    27    28 1   
    49    27    32 2   
    50    28    29 2   
    51    28    30 1   
    52    30    31 2   
    53    30    32 1   
    54    32    33 1   
    55    33    49 1   
    56    36    50 1   
    57    37    50 1   
    58    50    55 1   
    59    51    53 1   
    60    51    54 1   
@<TRIPOS>SUBSTRUCTURE
     1 5NX         1 TEMP              0 ****  ****    0 ROOT
