@<TRIPOS>MOLECULE
molecule
   64    70     1     0     0
SMALL
bcc


@<TRIPOS>ATOM
      1 Cl           0.0000     0.0000     0.0000 cl         1 5NY      -0.034400
      2 C25          1.7350     0.0000     0.0000 ca         1 5NY       0.103400
      3 C24          2.4270     0.0000     1.1920 ca         1 5NY      -0.155000
      4 C23          3.8170    -0.0000     1.1920 ca         1 5NY       0.046800
      5 N2           4.5150    -0.0010     2.4050 na         1 5NY      -0.257800
      6 C27          5.8670    -0.0010     2.5760 cc         1 5NY       0.361900
      7 N4           6.0940    -0.0020     3.8610 nd         1 5NY      -0.341000
      8 N3           4.9810    -0.0020     4.5020 nd         1 5NY      -0.341000
      9 C26          3.9830     0.0040     3.6610 cc         1 5NY       0.361900
     10 C22          4.5150    -0.0000    -0.0100 ca         1 5NY      -0.157000
     11 C21          3.8330    -0.0000    -1.2060 ca         1 5NY      -0.069000
     12 C20          2.4360    -0.0050    -1.2120 ca         1 5NY      -0.155600
     13 C19          1.7000    -0.0050    -2.4910 c          1 5NY       0.671700
     14 O            0.4850    -0.0100    -2.4930 o          1 5NY      -0.569100
     15 N1           2.3770     0.0010    -3.6570 ns         1 5NY      -0.583900
     16 C10          1.6520    -0.1130    -4.9250 c3         1 5NY       0.169700
     17 C9           2.6530    -0.1410    -6.0830 c3         1 5NY       0.049300
     18 N            3.4060    -1.4030    -6.0360 na         1 5NY      -0.067400
     19 C4           4.5890    -1.6680    -6.6650 ca         1 5NY      -0.043200
     20 C3           5.3980    -0.8890    -7.4910 ca         1 5NY      -0.131000
     21 C2           6.5550    -1.4780    -7.9710 ca         1 5NY      -0.109000
     22 C13          0.7320     1.0690    -5.0840 ca         1 5NY      -0.095300
     23 C18          1.0040     2.2520    -4.4220 ca         1 5NY      -0.110500
     24 C17          0.1600     3.3360    -4.5680 ca         1 5NY      -0.123000
     25 C16         -0.9570     3.2400    -5.3770 ca         1 5NY      -0.119000
     26 C15         -1.2290     2.0570    -6.0400 ca         1 5NY      -0.123000
     27 C14         -0.3810     0.9740    -5.8990 ca         1 5NY      -0.110500
     28 C11          0.8290    -1.4040    -4.9290 c3         1 5NY      -0.100400
     29 C12          1.7300    -2.5730    -4.5120 c3         1 5NY      -0.019200
     30 C8           3.0000    -2.5080    -5.3300 cc         1 5NY       0.028700
     31 C7           3.9020    -3.5130    -5.4790 cd         1 5NY      -0.247000
     32 C5           4.9570    -2.9970    -6.3480 ca         1 5NY      -0.081800
     33 C6           6.1300    -3.5680    -6.8450 ca         1 5NY      -0.095000
     34 C1           6.9080    -2.7790    -7.6560 ca         1 5NY      -0.093300
     35 C            8.1850    -3.3460    -8.2200 c3         1 5NY      -0.048800
     36 C28          3.8320    -4.8610    -4.8800 cd         1 5NY       0.530300
     37 N8           4.7420    -5.8640    -5.0280 na         1 5NY      -0.197400
     38 N7           4.2340    -6.9360    -4.2730 nc         1 5NY      -0.220800
     39 N6           3.1250    -6.5350    -3.7530 nd         1 5NY      -0.006000
     40 N5           2.8790    -5.3220    -4.0940 nd         1 5NY      -0.438000
     41 H20          1.8860    -0.0010     2.1310 ha         1 5NY       0.158000
     42 H22          6.6150    -0.0000     1.7920 h5         1 5NY       0.077600
     43 H21          2.9300     0.0050     3.9130 h5         1 5NY       0.077600
     44 H19          5.5990     0.0020    -0.0050 ha         1 5NY       0.147000
     45 H18          4.3790    -0.0020    -2.1410 ha         1 5NY       0.141000
     46 H17          3.3700     0.1300    -3.6580 hn         1 5NY       0.318500
     47 H7           3.3380     0.6930    -5.9890 h1         1 5NY       0.071700
     48 H6           2.1190    -0.0740    -7.0240 h1         1 5NY       0.071700
     49 H4           5.1330     0.1300    -7.7450 ha         1 5NY       0.137000
     50 H3           7.2070    -0.9010    -8.6150 ha         1 5NY       0.134000
     51 H16          1.8790     2.3280    -3.7870 ha         1 5NY       0.130000
     52 H15          0.3740     4.2630    -4.0480 ha         1 5NY       0.132500
     53 H14         -1.6200     4.0890    -5.4900 ha         1 5NY       0.133000
     54 H13         -2.1020     1.9820    -6.6760 ha         1 5NY       0.132500
     55 H12         -0.5940     0.0480    -6.4180 ha         1 5NY       0.130000
     56 H9           0.0090    -1.3110    -4.2260 hc         1 5NY       0.077700
     57 H8           0.4410    -1.5830    -5.9240 hc         1 5NY       0.077700
     58 H11          1.2210    -3.5110    -4.7050 hc         1 5NY       0.089200
     59 H10          1.9700    -2.4910    -3.4590 hc         1 5NY       0.089200
     60 H5           6.4120    -4.5860    -6.6030 ha         1 5NY       0.124000
     61 H2           7.9520    -4.0240    -9.0320 hc         1 5NY       0.044367
     62 H1           8.8060    -2.5390    -8.5910 hc         1 5NY       0.044367
     63 H            8.7160    -3.8830    -7.4430 hc         1 5NY       0.044367
     64 H23          5.5900    -5.8430    -5.5600 hn         1 5NY       0.338700
@<TRIPOS>BOND
     1    26    27 ar
     2    26    25 ar
     3    27    22 ar
     4    25    24 ar
     5    28    29 1
     6    28    16 1
     7    14    13 2
     8    29    30 1
     9    22    16 1
    10    22    23 ar
    11    24    23 ar
    12    37    38 1
    13    37    36 1
    14    16    15 1
    15    16    17 1
    16    38    39 2
    17    13    15 1
    18    13    12 1
    19    30    18 1
    20    30    31 2
    21    17    18 1
    22    36    31 1
    23    36    40 2
    24    39    40 1
    25    18    19 1
    26    31    32 1
    27    12    11 ar
    28    12     2 ar
    29    11    10 ar
    30     1     2 1
    31     2     3 ar
    32    10     4 ar
    33    19    32 ar
    34    19    20 ar
    35    32    33 ar
    36     3     4 ar
    37     4     5 1
    38    20    21 ar
    39     9     5 1
    40     9     8 2
    41    33    34 ar
    42     5     6 1
    43     8     7 1
    44    21    34 ar
    45    34    35 1
    46     6     7 2
    47     3    41 1
    48     6    42 1
    49     9    43 1
    50    10    44 1
    51    11    45 1
    52    15    46 1
    53    17    47 1
    54    17    48 1
    55    20    49 1
    56    21    50 1
    57    23    51 1
    58    24    52 1
    59    25    53 1
    60    26    54 1
    61    27    55 1
    62    28    56 1
    63    28    57 1
    64    29    58 1
    65    29    59 1
    66    33    60 1
    67    35    61 1
    68    35    62 1
    69    35    63 1
    70    37    64 1
@<TRIPOS>SUBSTRUCTURE
     1 5NY         1 TEMP              0 ****  ****    0 ROOT
