@<TRIPOS>MOLECULE
5NY
   64    70     1     0     0
SMALL
bcc


@<TRIPOS>ATOM
      1 Cl           0.0000     0.0000     0.0000 cl         1 5NY       0.070600
      2 C25          1.7350     0.0000     0.0000 ca         1 5NY       0.024400
      3 C24          2.4270     0.0000     1.1920 ca         1 5NY      -0.123000
      4 C23          3.8170    -0.0000     1.1920 ca         1 5NY      -0.125200
      5 N2           4.5150    -0.0010     2.4050 na         1 5NY       0.250200
      6 C27          5.8670    -0.0010     2.5760 cc         1 5NY       0.188400
      7 N4           6.0940    -0.0020     3.8610 nd         1 5NY      -0.315000
      8 N3           4.9810    -0.0020     4.5020 nd         1 5NY      -0.315000
      9 C26          3.9830     0.0040     3.6610 cc         1 5NY       0.188400
     10 C22          4.5150    -0.0000    -0.0100 ca         1 5NY      -0.122000
     11 C21          3.8330    -0.0000    -1.2060 ca         1 5NY      -0.047000
     12 C20          2.4360    -0.0050    -1.2120 ca         1 5NY      -0.158600
     13 C19          1.7000    -0.0050    -2.4910 c          1 5NY       0.600700
     14 O            0.4850    -0.0100    -2.4930 o          1 5NY      -0.618100
     15 N1           2.3770     0.0010    -3.6570 ns         1 5NY      -0.202900
     16 C10          1.6520    -0.1130    -4.9250 c3         1 5NY       0.076700
     17 C9           2.6530    -0.1410    -6.0830 c3         1 5NY      -0.045700
     18 N            3.4060    -1.4030    -6.0360 na         1 5NY       0.406600
     19 C4           4.5890    -1.6680    -6.6650 ca         1 5NY      -0.218200
     20 C3           5.3980    -0.8890    -7.4910 ca         1 5NY      -0.091000
     21 C2           6.5550    -1.4780    -7.9710 ca         1 5NY      -0.085000
     22 C13          0.7320     1.0690    -5.0840 ca         1 5NY      -0.101300
     23 C18          1.0040     2.2520    -4.4220 ca         1 5NY      -0.089500
     24 C17          0.1600     3.3360    -4.5680 ca         1 5NY      -0.091500
     25 C16         -0.9570     3.2400    -5.3770 ca         1 5NY      -0.091000
     26 C15         -1.2290     2.0570    -6.0400 ca         1 5NY      -0.091500
     27 C14         -0.3810     0.9740    -5.8990 ca         1 5NY      -0.089500
     28 C11          0.8290    -1.4040    -4.9290 c3         1 5NY      -0.070400
     29 C12          1.7300    -2.5730    -4.5120 c3         1 5NY       0.049800
     30 C8           3.0000    -2.5080    -5.3300 cc         1 5NY      -0.159300
     31 C7           3.9020    -3.5130    -5.4790 cd         1 5NY      -0.237000
     32 C5           4.9570    -2.9970    -6.3480 ca         1 5NY      -0.079800
     33 C6           6.1300    -3.5680    -6.8450 ca         1 5NY      -0.071000
     34 C1           6.9080    -2.7790    -7.6560 ca         1 5NY      -0.096300
     35 C            8.1850    -3.3460    -8.2200 c3         1 5NY       0.062200
     36 C28          3.8320    -4.8610    -4.8800 cd         1 5NY       0.374300
     37 N8           4.7420    -5.8640    -5.0280 na         1 5NY       0.266600
     38 N7           4.2340    -6.9360    -4.2730 nd         1 5NY      -0.406800
     39 N6           3.1250    -6.5350    -3.7530 nc         1 5NY       0.035000
     40 N5           2.8790    -5.3220    -4.0940 nc         1 5NY      -0.421000
     41 H20          1.8860    -0.0010     2.1310 ha         1 5NY       0.132000
     42 H22          6.6150    -0.0000     1.7920 h5         1 5NY       0.036100
     43 H21          2.9300     0.0050     3.9130 h5         1 5NY       0.036100
     44 H19          5.5990     0.0020    -0.0050 ha         1 5NY       0.122000
     45 H18          4.3790    -0.0020    -2.1410 ha         1 5NY       0.109000
     46 H17          3.3700     0.1300    -3.6580 hn         1 5NY       0.182500
     47 H7           3.3380     0.6930    -5.9890 h1         1 5NY       0.043200
     48 H6           2.1190    -0.0740    -7.0240 h1         1 5NY       0.043200
     49 H4           5.1330     0.1300    -7.7450 ha         1 5NY       0.110000
     50 H3           7.2070    -0.9010    -8.6150 ha         1 5NY       0.107000
     51 H16          1.8790     2.3280    -3.7870 ha         1 5NY       0.106000
     52 H15          0.3740     4.2630    -4.0480 ha         1 5NY       0.104500
     53 H14         -1.6200     4.0890    -5.4900 ha         1 5NY       0.104000
     54 H13         -2.1020     1.9820    -6.6760 ha         1 5NY       0.104500
     55 H12         -0.5940     0.0480    -6.4180 ha         1 5NY       0.106000
     56 H9           0.0090    -1.3110    -4.2260 hc         1 5NY       0.055200
     57 H8           0.4410    -1.5830    -5.9240 hc         1 5NY       0.055200
     58 H11          1.2210    -3.5110    -4.7050 hc         1 5NY       0.053200
     59 H10          1.9700    -2.4910    -3.4590 hc         1 5NY       0.053200
     60 H5           6.4120    -4.5860    -6.6030 ha         1 5NY       0.101000
     61 H2           7.9520    -4.0240    -9.0320 hc         1 5NY       0.008700
     62 H1           8.8060    -2.5390    -8.5910 hc         1 5NY       0.008700
     63 H            8.7160    -3.8830    -7.4430 hc         1 5NY       0.008700
     64 H23          5.5900    -5.8430    -5.5600 hn         1 5NY       0.178700
@<TRIPOS>BOND
     1     1     2 1   
     2     2     3 ar  
     3     2    12 ar  
     4     3     4 ar  
     5     3    41 1   
     6     4     5 1   
     7     4    10 ar  
     8     5     6 1   
     9     5     9 1   
    10     6     7 2   
    11     6    42 1   
    12     7     8 1   
    13     8     9 2   
    14     9    43 1   
    15    10    11 ar  
    16    10    44 1   
    17    11    12 ar  
    18    11    45 1   
    19    12    13 1   
    20    13    14 2   
    21    13    15 1   
    22    15    16 1   
    23    15    46 1   
    24    16    17 1   
    25    16    22 1   
    26    16    28 1   
    27    17    18 1   
    28    17    47 1   
    29    17    48 1   
    30    18    19 1   
    31    18    30 1   
    32    19    20 ar  
    33    19    32 ar  
    34    20    21 ar  
    35    20    49 1   
    36    21    34 ar  
    37    21    50 1   
    38    22    23 ar  
    39    22    27 ar  
    40    23    24 ar  
    41    23    51 1   
    42    24    25 ar  
    43    24    52 1   
    44    25    26 ar  
    45    25    53 1   
    46    26    27 ar  
    47    26    54 1   
    48    27    55 1   
    49    28    29 1   
    50    28    56 1   
    51    28    57 1   
    52    29    30 1   
    53    29    58 1   
    54    29    59 1   
    55    30    31 2   
    56    31    32 1   
    57    31    36 1   
    58    32    33 ar  
    59    33    34 ar  
    60    33    60 1   
    61    34    35 1   
    62    35    61 1   
    63    35    62 1   
    64    35    63 1   
    65    36    37 1   
    66    36    40 2   
    67    37    38 1   
    68    37    64 1   
    69    38    39 2   
    70    39    40 1   
@<TRIPOS>SUBSTRUCTURE
     1 5NY         1 TEMP              0 ****  ****    0 ROOT
