@<TRIPOS>MOLECULE
molecule
   92    99     1     0     0
SMALL
bcc


@<TRIPOS>ATOM
      1 N2           0.0000     0.0000     0.0000 nv         1 5NZ      -0.635100
      2 C8           1.3970     0.0000     0.0000 cc         1 5NZ       0.190700
      3 C7           2.0870     0.0000     1.2130 cc         1 5NZ      -0.115000
      4 C6           3.4520     0.0010     1.2330 cd         1 5NZ      -0.092000
      5 C5           4.1680     0.0000     0.0350 cd         1 5NZ      -0.026000
      6 C19          2.0790    -0.0050    -1.2000 cc         1 5NZ      -0.169000
      7 C18          3.4830    -0.0000    -1.2030 cd         1 5NZ      -0.037300
      8 N3           4.1540     0.0010    -2.3650 na         1 5NZ       0.074900
      9 C11          5.4640     0.0010    -2.4420 cc         1 5NZ       0.159700
     10 C12          6.1180     0.0010    -3.7700 ca         1 5NZ      -0.132000
     11 C13          5.8910    -1.0450    -4.6640 ca         1 5NZ      -0.096000
     12 C14          6.5050    -1.0390    -5.8990 ca         1 5NZ      -0.119500
     13 C15          7.3440     0.0030    -6.2520 ca         1 5NZ      -0.081000
     14 C16          7.5740     1.0440    -5.3700 ca         1 5NZ      -0.119500
     15 C17          6.9620     1.0510    -4.1340 ca         1 5NZ      -0.096000
     16 C10          6.2850     0.0010    -1.2300 ca         1 5NZ      -0.052000
     17 C9           7.6800     0.0010    -1.2810 ca         1 5NZ      -0.180000
     18 C4           5.6350     0.0010     0.0280 ca         1 5NZ      -0.031000
     19 C3           6.3870     0.0010     1.2010 ca         1 5NZ      -0.079000
     20 C2           7.7500     0.0010     1.1320 ca         1 5NZ      -0.131000
     21 C1           8.4030     0.0010    -0.1020 ca         1 5NZ       0.220600
     22 N1           9.7990     0.0010    -0.1470 nv         1 5NZ      -0.894200
     23 C20          3.3840     0.0010    -3.6120 c3         1 5NZ      -0.029700
     24 C21          3.0980     1.4440    -4.0350 c3         1 5NZ      -0.099400
     25 C22          2.2950     1.4430    -5.3370 c3         1 5NZ      -0.081400
     26 C24          2.1130     2.8820    -5.8230 c3         1 5NZ      -0.077400
     27 C25          1.4140     2.8750    -7.1850 c3         1 5NZ      -0.002100
     28 C26          1.3400     4.2840    -7.7180 cd         1 5NZ      -0.263900
     29 N4           0.3070     5.1480    -7.5900 na         1 5NZ       0.129400
     30 N5           0.6260     6.2470    -8.1790 nd         1 5NZ      -0.192800
     31 N6           1.8040     6.1540    -8.6860 nc         1 5NZ      -0.354000
     32 C27          2.2960     4.9390    -8.4170 cc         1 5NZ       0.277200
     33 C28         -0.9560     4.8790    -6.8980 c3         1 5NZ       0.041300
     34 C29         -1.9290     4.1970    -7.8620 c3         1 5NZ       0.194800
     35 N7          -3.2360     4.0400    -7.2100 nu         1 5NZ      -0.822600
     36 C30         -3.2810     2.8710    -6.4640 ca         1 5NZ       0.160600
     37 C31         -3.4470     1.6180    -7.0940 ca         1 5NZ      -0.184300
     38 C32         -3.5710     1.5050    -8.4860 ca         1 5NZ      -0.119000
     39 C33         -3.4870     0.4550    -6.2890 ca         1 5NZ       0.426600
     40 C34         -3.6500    -0.7970    -6.9070 ca         1 5NZ      -0.168300
     41 C35         -3.7670    -0.8720    -8.2610 ca         1 5NZ      -0.115000
     42 C36         -3.7270     0.2750    -9.0500 ca         1 5NZ      -0.118000
     43 N8          -3.3720     0.5630    -4.9640 nb         1 5NZ      -0.699000
     44 C37         -3.2170     1.7270    -4.3560 ca         1 5NZ       0.447600
     45 C38         -3.1080     1.7030    -2.8510 c3         1 5NZ      -0.124700
     46 C39         -3.1580     2.9060    -5.0790 ca         1 5NZ      -0.192600
     47 C40         -2.9620     4.2510    -4.4310 c3         1 5NZ      -0.024100
     48 C41         -3.2720     4.1780    -2.9370 c3         1 5NZ      -0.083400
     49 C42         -2.5040     3.0080    -2.3350 c3         1 5NZ      -0.084400
     50 H1          -0.5000     0.7980     0.3390 hn         1 5NZ       0.292200
     51 H2          -0.5000    -0.8140    -0.2990 hn         1 5NZ       0.292200
     52 H3           1.5360    -0.0010     2.1460 ha         1 5NZ       0.163000
     53 H4           3.9800     0.0010     2.1790 ha         1 5NZ       0.157000
     54 H5           1.5360    -0.1050    -2.1310 ha         1 5NZ       0.159000
     55 H6           5.2350    -1.8610    -4.3880 ha         1 5NZ       0.146000
     56 H7           6.3290    -1.8510    -6.5950 ha         1 5NZ       0.156500
     57 H8           7.8260     0.0030    -7.2230 ha         1 5NZ       0.156000
     58 H9           8.2310     1.8580    -5.6540 ha         1 5NZ       0.156500
     59 H10          7.1430     1.8670    -3.4440 ha         1 5NZ       0.146000
     60 H11          8.1910     0.0020    -2.2360 ha         1 5NZ       0.158000
     61 H12          5.8910     0.0010     2.1640 ha         1 5NZ       0.156000
     62 H13          8.3330     0.0010     2.0460 ha         1 5NZ       0.157000
     63 H14         10.2710    -0.0140    -1.0290 hn         1 5NZ       0.447300
     64 H15         10.3270     0.0080     0.7030 hn         1 5NZ       0.447300
     65 H16          2.4480    -0.5230    -3.4580 h1         1 5NZ       0.098700
     66 H17          3.9540    -0.4970    -4.3870 h1         1 5NZ       0.098700
     67 H18          2.5290     1.9410    -3.2590 hc         1 5NZ       0.064200
     68 H19          4.0340     1.9670    -4.1880 hc         1 5NZ       0.064200
     69 H20          1.3240     0.9950    -5.1620 hc         1 5NZ       0.051200
     70 H21          2.8260     0.8720    -6.0890 hc         1 5NZ       0.051200
     71 H22          1.5090     3.4310    -5.1100 hc         1 5NZ       0.053200
     72 H23          3.0820     3.3570    -5.9170 hc         1 5NZ       0.053200
     73 H24          1.9750     2.2570    -7.8750 hc         1 5NZ       0.059700
     74 H25          0.4130     2.4770    -7.0750 hc         1 5NZ       0.059700
     75 H26          3.2650     4.5530    -8.7080 h4         1 5NZ       0.049100
     76 H27         -1.3850     5.8120    -6.5530 h1         1 5NZ       0.081700
     77 H28         -0.7730     4.2300    -6.0500 h1         1 5NZ       0.081700
     78 H29         -2.0410     4.8040    -8.7530 h1         1 5NZ       0.056700
     79 H30         -1.5430     3.2220    -8.1360 h1         1 5NZ       0.056700
     80 H31         -4.0630     4.3790    -7.6590 hn         1 5NZ       0.445800
     81 H32         -3.5410     2.3900    -9.1090 ha         1 5NZ       0.134000
     82 H33         -3.6830    -1.6990    -6.3070 ha         1 5NZ       0.149000
     83 H34         -3.8910    -1.8390    -8.7320 ha         1 5NZ       0.139000
     84 H35         -3.8220     0.1880   -10.1260 ha         1 5NZ       0.138000
     85 H36         -4.0960     1.5770    -2.4250 hc         1 5NZ       0.062200
     86 H37         -2.4760     0.8760    -2.5520 hc         1 5NZ       0.062200
     87 H38         -1.9340     4.5650    -4.5660 hc         1 5NZ       0.057200
     88 H39         -3.6240     4.9700    -4.8970 hc         1 5NZ       0.057200
     89 H40         -4.3350     4.0250    -2.7940 hc         1 5NZ       0.052700
     90 H41         -2.9640     5.0990    -2.4570 hc         1 5NZ       0.052700
     91 H42         -1.4640     3.0670    -2.6320 hc         1 5NZ       0.039700
     92 H43         -2.5810     3.0410    -1.2550 hc         1 5NZ       0.039700
@<TRIPOS>BOND
     1     1     2 2   
     2     3     2 1   
     3     3     4 2   
     4     2     6 1   
     5     4     5 1   
     6     6     7 2   
     7     5     7 1   
     8     5    18 2   
     9     7     8 1   
    10    19    18 ar  
    11    19    20 ar  
    12    18    16 ar  
    13     8    23 1   
    14     8     9 1   
    15    23    24 1   
    16    20    21 ar  
    17    16     9 2   
    18    16    17 ar  
    19     9    10 1   
    20    25    24 1   
    21    25    26 1   
    22    21    17 ar  
    23    21    22 1   
    24    15    10 ar  
    25    15    14 ar  
    26    10    11 ar  
    27    26    27 1   
    28    27    28 1   
    29    14    13 ar  
    30    11    12 ar  
    31    32    28 2   
    32    32    31 1   
    33    28    29 1   
    34    13    12 ar  
    35    41    40 ar  
    36    41    42 ar  
    37    31    30 2   
    38    29    33 1   
    39    29    30 1   
    40    40    39 ar  
    41    42    38 ar  
    42    33    34 1   
    43    38    37 ar  
    44    39    37 ar  
    45    39    43 ar  
    46    37    36 ar  
    47    43    44 ar  
    48    36    35 1   
    49    36    46 ar  
    50    44    45 1   
    51    44    46 ar  
    52    34    35 1   
    53    45    49 1   
    54    46    47 1   
    55    49    48 1   
    56    47    48 1   
    57     1    50 1   
    58     1    51 1   
    59     3    52 1   
    60     4    53 1   
    61     6    54 1   
    62    11    55 1   
    63    12    56 1   
    64    13    57 1   
    65    14    58 1   
    66    15    59 1   
    67    17    60 1   
    68    19    61 1   
    69    20    62 1   
    70    22    63 1   
    71    22    64 1   
    72    23    65 1   
    73    23    66 1   
    74    24    67 1   
    75    24    68 1   
    76    25    69 1   
    77    25    70 1   
    78    26    71 1   
    79    26    72 1   
    80    27    73 1   
    81    27    74 1   
    82    32    75 1   
    83    33    76 1   
    84    33    77 1   
    85    34    78 1   
    86    34    79 1   
    87    35    80 1   
    88    38    81 1   
    89    40    82 1   
    90    41    83 1   
    91    42    84 1   
    92    45    85 1   
    93    45    86 1   
    94    47    87 1   
    95    47    88 1   
    96    48    89 1   
    97    48    90 1   
    98    49    91 1   
    99    49    92 1   
@<TRIPOS>SUBSTRUCTURE
     1 5NZ         1 TEMP              0 ****  ****    0 ROOT
