@<TRIPOS>MOLECULE
5NZ
   92    99     1     0     0
SMALL
bcc


@<TRIPOS>ATOM
      1 N2           0.0000     0.0000     0.0000 nv         1 5NZ      -0.191100
      2 C8           1.3970     0.0000     0.0000 cc         1 5NZ       0.219900
      3 C7           2.0870     0.0000     1.2130 cc         1 5NZ      -0.146600
      4 C6           3.4520     0.0010     1.2330 cd         1 5NZ      -0.065200
      5 C5           4.1680     0.0000     0.0350 cd         1 5NZ       0.014200
      6 C19          2.0790    -0.0050    -1.2000 cc         1 5NZ      -0.219600
      7 C18          3.4830    -0.0000    -1.2030 cd         1 5NZ      -0.264300
      8 N3           4.1540     0.0010    -2.3650 na         1 5NZ       0.683900
      9 C11          5.4640     0.0010    -2.4420 cc         1 5NZ      -0.077300
     10 C12          6.1180     0.0010    -3.7700 ca         1 5NZ      -0.124000
     11 C13          5.8910    -1.0450    -4.6640 ca         1 5NZ      -0.077000
     12 C14          6.5050    -1.0390    -5.8990 ca         1 5NZ      -0.084500
     13 C15          7.3440     0.0030    -6.2520 ca         1 5NZ      -0.053000
     14 C16          7.5740     1.0440    -5.3700 ca         1 5NZ      -0.084500
     15 C17          6.9620     1.0510    -4.1340 ca         1 5NZ      -0.077000
     16 C10          6.2850     0.0010    -1.2300 ca         1 5NZ      -0.019000
     17 C9           7.6800     0.0010    -1.2810 ca         1 5NZ      -0.176000
     18 C4           5.6350     0.0010     0.0280 ca         1 5NZ      -0.062000
     19 C3           6.3870     0.0010     1.2010 ca         1 5NZ      -0.037000
     20 C2           7.7500     0.0010     1.1320 ca         1 5NZ      -0.113000
     21 C1           8.4030     0.0010    -0.1020 ca         1 5NZ       0.072600
     22 N1           9.7990     0.0010    -0.1470 nv         1 5NZ      -0.393200
     23 C20          3.3840     0.0010    -3.6120 c3         1 5NZ      -0.188700
     24 C21          3.0980     1.4440    -4.0350 c3         1 5NZ      -0.036400
     25 C22          2.2950     1.4430    -5.3370 c3         1 5NZ      -0.023400
     26 C24          2.1130     2.8820    -5.8230 c3         1 5NZ      -0.030400
     27 C25          1.4140     2.8750    -7.1850 c3         1 5NZ       0.081900
     28 C26          1.3400     4.2840    -7.7180 cc         1 5NZ      -0.457900
     29 N4           0.3070     5.1480    -7.5900 na         1 5NZ       0.605400
     30 N5           0.6260     6.2470    -8.1790 nc         1 5NZ      -0.363800
     31 N6           1.8040     6.1540    -8.6860 nd         1 5NZ      -0.308000
     32 C27          2.2960     4.9390    -8.4170 cd         1 5NZ       0.302200
     33 C28         -0.9560     4.8790    -6.8980 c3         1 5NZ      -0.063700
     34 C29         -1.9290     4.1970    -7.8620 c3         1 5NZ       0.139800
     35 N7          -3.2360     4.0400    -7.2100 nu         1 5NZ      -0.466600
     36 C30         -3.2810     2.8710    -6.4640 ca         1 5NZ       0.036600
     37 C31         -3.4470     1.6180    -7.0940 ca         1 5NZ      -0.169300
     38 C32         -3.5710     1.5050    -8.4860 ca         1 5NZ      -0.102000
     39 C33         -3.4870     0.4550    -6.2890 ca         1 5NZ       0.377600
     40 C34         -3.6500    -0.7970    -6.9070 ca         1 5NZ      -0.141300
     41 C35         -3.7670    -0.8720    -8.2610 ca         1 5NZ      -0.090000
     42 C36         -3.7270     0.2750    -9.0500 ca         1 5NZ      -0.081000
     43 N8          -3.3720     0.5630    -4.9640 nb         1 5NZ      -0.575000
     44 C37         -3.2170     1.7270    -4.3560 ca         1 5NZ       0.390600
     45 C38         -3.1080     1.7030    -2.8510 c3         1 5NZ      -0.065700
     46 C39         -3.1580     2.9060    -5.0790 ca         1 5NZ      -0.177600
     47 C40         -2.9620     4.2510    -4.4310 c3         1 5NZ       0.031900
     48 C41         -3.2720     4.1780    -2.9370 c3         1 5NZ      -0.027400
     49 C42         -2.5040     3.0080    -2.3350 c3         1 5NZ      -0.027400
     50 H1          -0.5000     0.7980     0.3390 hn         1 5NZ       0.134200
     51 H2          -0.5000    -0.8140    -0.2990 hn         1 5NZ       0.134200
     52 H3           1.5360    -0.0010     2.1460 ha         1 5NZ       0.128000
     53 H4           3.9800     0.0010     2.1790 ha         1 5NZ       0.130000
     54 H5           1.5360    -0.1050    -2.1310 ha         1 5NZ       0.138000
     55 H6           5.2350    -1.8610    -4.3880 ha         1 5NZ       0.116500
     56 H7           6.3290    -1.8510    -6.5950 ha         1 5NZ       0.123500
     57 H8           7.8260     0.0030    -7.2230 ha         1 5NZ       0.121000
     58 H9           8.2310     1.8580    -5.6540 ha         1 5NZ       0.123500
     59 H10          7.1430     1.8670    -3.4440 ha         1 5NZ       0.116500
     60 H11          8.1910     0.0020    -2.2360 ha         1 5NZ       0.138000
     61 H12          5.8910     0.0010     2.1640 ha         1 5NZ       0.124000
     62 H13          8.3330     0.0010     2.0460 ha         1 5NZ       0.125000
     63 H14         10.2710    -0.0140    -1.0290 hn         1 5NZ       0.278300
     64 H15         10.3270     0.0080     0.7030 hn         1 5NZ       0.278300
     65 H16          2.4480    -0.5230    -3.4580 h1         1 5NZ       0.085200
     66 H17          3.9540    -0.4970    -4.3870 h1         1 5NZ       0.085200
     67 H18          2.5290     1.9410    -3.2590 hc         1 5NZ       0.033700
     68 H19          4.0340     1.9670    -4.1880 hc         1 5NZ       0.033700
     69 H20          1.3240     0.9950    -5.1620 hc         1 5NZ       0.023200
     70 H21          2.8260     0.8720    -6.0890 hc         1 5NZ       0.023200
     71 H22          1.5090     3.4310    -5.1100 hc         1 5NZ       0.022700
     72 H23          3.0820     3.3570    -5.9170 hc         1 5NZ       0.022700
     73 H24          1.9750     2.2570    -7.8750 hc         1 5NZ       0.024700
     74 H25          0.4130     2.4770    -7.0750 hc         1 5NZ       0.024700
     75 H26          3.2650     4.5530    -8.7080 h4         1 5NZ       0.012100
     76 H27         -1.3850     5.8120    -6.5530 h1         1 5NZ       0.055700
     77 H28         -0.7730     4.2300    -6.0500 h1         1 5NZ       0.055700
     78 H29         -2.0410     4.8040    -8.7530 h1         1 5NZ       0.028700
     79 H30         -1.5430     3.2220    -8.1360 h1         1 5NZ       0.028700
     80 H31         -4.0630     4.3790    -7.6590 hn         1 5NZ       0.305800
     81 H32         -3.5410     2.3900    -9.1090 ha         1 5NZ       0.109000
     82 H33         -3.6830    -1.6990    -6.3070 ha         1 5NZ       0.118000
     83 H34         -3.8910    -1.8390    -8.7320 ha         1 5NZ       0.109000
     84 H35         -3.8220     0.1880   -10.1260 ha         1 5NZ       0.109000
     85 H36         -4.0960     1.5770    -2.4250 hc         1 5NZ       0.027200
     86 H37         -2.4760     0.8760    -2.5520 hc         1 5NZ       0.027200
     87 H38         -1.9340     4.5650    -4.5660 hc         1 5NZ       0.029200
     88 H39         -3.6240     4.9700    -4.8970 hc         1 5NZ       0.029200
     89 H40         -4.3350     4.0250    -2.7940 hc         1 5NZ       0.024200
     90 H41         -2.9640     5.0990    -2.4570 hc         1 5NZ       0.024200
     91 H42         -1.4640     3.0670    -2.6320 hc         1 5NZ       0.010200
     92 H43         -2.5810     3.0410    -1.2550 hc         1 5NZ       0.010200
@<TRIPOS>BOND
     1     1     2 2   
     2     1    50 1   
     3     1    51 1   
     4     2     3 1   
     5     2     6 1   
     6     3     4 2   
     7     3    52 1   
     8     4     5 1   
     9     4    53 1   
    10     5     7 1   
    11     5    18 2   
    12     6     7 2   
    13     6    54 1   
    14     7     8 1   
    15     8     9 1   
    16     8    23 1   
    17     9    10 1   
    18     9    16 2   
    19    10    11 ar  
    20    10    15 ar  
    21    11    12 ar  
    22    11    55 1   
    23    12    13 ar  
    24    12    56 1   
    25    13    14 ar  
    26    13    57 1   
    27    14    15 ar  
    28    14    58 1   
    29    15    59 1   
    30    16    17 ar  
    31    16    18 ar  
    32    17    21 ar  
    33    17    60 1   
    34    18    19 ar  
    35    19    20 ar  
    36    19    61 1   
    37    20    21 ar  
    38    20    62 1   
    39    21    22 1   
    40    22    63 1   
    41    22    64 1   
    42    23    24 1   
    43    23    65 1   
    44    23    66 1   
    45    24    25 1   
    46    24    67 1   
    47    24    68 1   
    48    25    26 1   
    49    25    69 1   
    50    25    70 1   
    51    26    27 1   
    52    26    71 1   
    53    26    72 1   
    54    27    28 1   
    55    27    73 1   
    56    27    74 1   
    57    28    29 1   
    58    28    32 2   
    59    29    30 1   
    60    29    33 1   
    61    30    31 2   
    62    31    32 1   
    63    32    75 1   
    64    33    34 1   
    65    33    76 1   
    66    33    77 1   
    67    34    35 1   
    68    34    78 1   
    69    34    79 1   
    70    35    36 1   
    71    35    80 1   
    72    36    37 ar  
    73    36    46 ar  
    74    37    38 ar  
    75    37    39 ar  
    76    38    42 ar  
    77    38    81 1   
    78    39    40 ar  
    79    39    43 ar  
    80    40    41 ar  
    81    40    82 1   
    82    41    42 ar  
    83    41    83 1   
    84    42    84 1   
    85    43    44 ar  
    86    44    45 1   
    87    44    46 ar  
    88    45    49 1   
    89    45    85 1   
    90    45    86 1   
    91    46    47 1   
    92    47    48 1   
    93    47    87 1   
    94    47    88 1   
    95    48    49 1   
    96    48    89 1   
    97    48    90 1   
    98    49    91 1   
    99    49    92 1   
@<TRIPOS>SUBSTRUCTURE
     1 5NZ         1 TEMP              0 ****  ****    0 ROOT
