@<TRIPOS>MOLECULE
5O0
   46    48     1     0     0
SMALL
bcc


@<TRIPOS>ATOM
      1 C3           0.0000     0.0000     0.0000 ca         1 5O0      -0.089000
      2 C4           1.3830     0.0000     0.0000 ca         1 5O0      -0.079000
      3 C5           2.0760     0.0000     1.2000 ca         1 5O0      -0.091400
      4 C1          -0.0110     0.0110     2.3980 ca         1 5O0      -0.113000
      5 C2          -0.6960     0.0060     1.1960 ca         1 5O0      -0.034600
      6 C9           8.1470    -1.4580    -2.1520 ca         1 5O0      -0.118000
      7 O5           8.3020    -0.7660    -8.8080 o          1 5O0      -0.882300
      8 O1           4.7690    -5.0330    -2.3740 o          1 5O0      -0.611300
      9 O2           6.7840    -5.1300    -3.8500 o          1 5O0      -0.611300
     10 C13          6.0040    -2.1240    -5.5320 ca         1 5O0      -0.151000
     11 C18          5.9580    -4.3270    -6.5050 ca         1 5O0      -0.151000
     12 C17          6.7090    -3.8790    -7.5680 ca         1 5O0      -0.060000
     13 C19          5.6690    -2.4450    -1.4060 ca         1 5O0       0.007000
     14 O4           8.2310    -2.8190    -9.6490 o          1 5O0      -0.882300
     15 O3           4.8610    -3.9000    -4.4400 os         1 5O0      -0.347800
     16 C15          7.1110    -2.5410    -7.6220 ca         1 5O0      -0.100600
     17 C14          6.7570    -1.6660    -6.5900 ca         1 5O0      -0.060000
     18 C8           7.4500    -0.8580    -1.1200 ca         1 5O0      -0.087000
     19 C10          7.6050    -2.5450    -2.8130 ca         1 5O0       0.012000
     20 C11          6.3670    -3.0380    -2.4410 ca         1 5O0      -0.165500
     21 C12          5.6020    -3.4540    -5.4850 ca         1 5O0       0.083100
     22 C7           6.2060    -1.3460    -0.7480 ca         1 5O0      -0.129400
     23 N1           3.4780     0.0000     1.2020 ns         1 5O0      -0.050100
     24 O            3.5500    -1.1940    -0.6700 o          1 5O0      -0.675100
     25 Cl          -2.4320     0.0200     1.1880 cl         1 5O0      -0.045400
     26 C            1.3760    -0.0010     2.4070 ca         1 5O0       0.001600
     27 N2           5.4980    -0.7410     0.2960 ns         1 5O0      -0.047100
     28 H1          -0.5400    -0.0020    -0.9390 ha         1 5O0       0.117000
     29 H2           1.9240    -0.0040    -0.9380 ha         1 5O0       0.158000
     30 H3          -0.5580     0.0130     3.3330 ha         1 5O0       0.115000
     31 H4           9.1170    -1.0760    -2.4440 ha         1 5O0       0.112000
     32 H6           5.7260    -1.4470    -4.7330 ha         1 5O0       0.102000
     33 H7           5.6440    -5.3640    -6.4640 ha         1 5O0       0.102000
     34 H8           6.9860    -4.5610    -8.3630 ha         1 5O0       0.127500
     35 H9           4.6980    -2.8290    -1.1180 ha         1 5O0       0.164000
     36 H10          7.0680    -0.6290    -6.6270 ha         1 5O0       0.127500
     37 H11          7.8730    -0.0040    -0.6050 ha         1 5O0       0.096000
     38 H12          8.1530    -3.0140    -3.6210 ha         1 5O0       0.139000
     39 H13          3.9770     0.5030     1.9080 hn         1 5O0       0.159500
     40 H14          2.5870    -0.8040     3.9050 hn         1 5O0       0.269300
     41 H15          2.0280     0.8070     4.2180 hn         1 5O0       0.269300
     42 H16          5.9890    -0.3850     1.0930 hn         1 5O0       0.155500
     43 N            2.0700     0.0040     3.6210 nv         1 5O0      -0.538200
     44 C6           4.1530    -0.6640     0.2430 c          1 5O0       0.552100
     45 S            5.6870    -4.4320    -3.2760 sy         1 5O0       1.278800
     46 C16          7.9160    -2.0560    -8.7580 c          1 5O0       0.972200
@<TRIPOS>BOND
     1     1     2 ar  
     2     1     5 ar  
     3     1    28 1   
     4     2     3 ar  
     5     2    29 1   
     6     3    23 1   
     7     3    26 ar  
     8     4     5 ar  
     9     4    26 ar  
    10     4    30 1   
    11     5    25 1   
    12     6    18 ar  
    13     6    19 ar  
    14     6    31 1   
    15     7    46 1   
    16     8    45 2   
    17     9    45 2   
    18    10    17 ar  
    19    10    21 ar  
    20    10    32 1   
    21    11    12 ar  
    22    11    21 ar  
    23    11    33 1   
    24    12    16 ar  
    25    12    34 1   
    26    13    20 ar  
    27    13    22 ar  
    28    13    35 1   
    29    14    46 1   
    30    15    21 1   
    31    15    45 1   
    32    16    17 ar  
    33    16    46 1   
    34    17    36 1   
    35    18    22 ar  
    36    18    37 1   
    37    19    20 ar  
    38    19    38 1   
    39    20    45 1   
    40    22    27 1   
    41    23    39 1   
    42    23    44 1   
    43    24    44 2   
    44    26    43 1   
    45    27    42 1   
    46    27    44 1   
    47    40    43 1   
    48    41    43 1   
@<TRIPOS>SUBSTRUCTURE
     1 5O0         1 TEMP              0 ****  ****    0 ROOT
