@<TRIPOS>MOLECULE
molecule
   46    48     1     0     0
SMALL
bcc


@<TRIPOS>ATOM
      1 C3           0.0000     0.0000     0.0000 ca         1 5O0      -0.117000
      2 C4           1.3830     0.0000     0.0000 ca         1 5O0      -0.106000
      3 C5           2.0760     0.0000     1.2000 ca         1 5O0       0.051600
      4 C1          -0.0110     0.0110     2.3980 ca         1 5O0      -0.138000
      5 C2          -0.6960     0.0060     1.1960 ca         1 5O0       0.020400
      6 C9           8.1470    -1.4580    -2.1520 ca         1 5O0      -0.138000
      7 O5           8.3020    -0.7660    -8.8080 o          1 5O0      -0.829300
      8 O1           4.7690    -5.0330    -2.3740 o          1 5O0      -0.646800
      9 O2           6.7840    -5.1300    -3.8500 o          1 5O0      -0.646800
     10 C13          6.0040    -2.1240    -5.5320 ca         1 5O0      -0.142500
     11 C18          5.9580    -4.3270    -6.5050 ca         1 5O0      -0.142500
     12 C17          6.7090    -3.8790    -7.5680 ca         1 5O0      -0.096500
     13 C19          5.6690    -2.4450    -1.4060 ca         1 5O0      -0.023000
     14 O4           8.2310    -2.8190    -9.6490 o          1 5O0      -0.829300
     15 O3           4.8610    -3.9000    -4.4400 os         1 5O0      -0.442800
     16 C15          7.1110    -2.5410    -7.6220 ca         1 5O0      -0.080600
     17 C14          6.7570    -1.6660    -6.5900 ca         1 5O0      -0.096500
     18 C8           7.4500    -0.8580    -1.1200 ca         1 5O0      -0.115000
     19 C10          7.6050    -2.5450    -2.8130 ca         1 5O0      -0.026000
     20 C11          6.3670    -3.0380    -2.4410 ca         1 5O0      -0.311500
     21 C12          5.6020    -3.4540    -5.4850 ca         1 5O0       0.036100
     22 C7           6.2060    -1.3460    -0.7480 ca         1 5O0       0.028600
     23 N1           3.4780     0.0000     1.2020 ns         1 5O0      -0.486100
     24 O            3.5500    -1.1940    -0.6700 o          1 5O0      -0.627100
     25 Cl          -2.4320     0.0200     1.1880 cl         1 5O0      -0.121400
     26 C            1.3760    -0.0010     2.4070 ca         1 5O0       0.136600
     27 N2           5.4980    -0.7410     0.2960 ns         1 5O0      -0.489100
     28 H1          -0.5400    -0.0020    -0.9390 ha         1 5O0       0.150000
     29 H2           1.9240    -0.0040    -0.9380 ha         1 5O0       0.184000
     30 H3          -0.5580     0.0130     3.3330 ha         1 5O0       0.144000
     31 H4           9.1170    -1.0760    -2.4440 ha         1 5O0       0.141000
     32 H6           5.7260    -1.4470    -4.7330 ha         1 5O0       0.127000
     33 H7           5.6440    -5.3640    -6.4640 ha         1 5O0       0.127000
     34 H8           6.9860    -4.5610    -8.3630 ha         1 5O0       0.161000
     35 H9           4.6980    -2.8290    -1.1180 ha         1 5O0       0.185000
     36 H10          7.0680    -0.6290    -6.6270 ha         1 5O0       0.161000
     37 H11          7.8730    -0.0040    -0.6050 ha         1 5O0       0.123000
     38 H12          8.1530    -3.0140    -3.6210 ha         1 5O0       0.167000
     39 H13          3.9770     0.5030     1.9080 hn         1 5O0       0.320500
     40 H14          2.5870    -0.8040     3.9050 hn         1 5O0       0.426800
     41 H15          2.0280     0.8070     4.2180 hn         1 5O0       0.426800
     42 H16          5.9890    -0.3850     1.0930 hn         1 5O0       0.314500
     43 N            2.0700     0.0040     3.6210 nv         1 5O0      -0.978200
     44 C6           4.1530    -0.6640     0.2430 c          1 5O0       0.780100
     45 S            5.6870    -4.4320    -3.2760 sy         1 5O0       1.537800
     46 C16          7.9160    -2.0560    -8.7580 c          1 5O0       0.878200
@<TRIPOS>BOND
     1    25     5 1   
     2     4     5 ar  
     3     4    26 ar  
     4    43    26 1   
     5     5     1 ar  
     6    26     3 ar  
     7     1     2 ar  
     8     3     2 ar  
     9     3    23 1   
    10    23    44 1   
    11    44    27 1   
    12    44    24 2   
    13    27    22 1   
    14    22    18 ar  
    15    22    13 ar  
    16    18     6 ar  
    17    13    20 ar  
    18     6    19 ar  
    19    20    19 ar  
    20    20    45 1   
    21     8    45 2   
    22    11    12 ar  
    23    11    21 ar  
    24    45    15 1   
    25    45     9 2   
    26    12    16 ar  
    27    15    21 1   
    28    21    10 ar  
    29    14    46 1   
    30    16    46 1   
    31    16    17 ar  
    32    46     7 1   
    33    10    17 ar  
    34     1    28 1   
    35     2    29 1   
    36     4    30 1   
    37     6    31 1   
    38    10    32 1   
    39    11    33 1   
    40    12    34 1   
    41    13    35 1   
    42    17    36 1   
    43    18    37 1   
    44    19    38 1   
    45    23    39 1   
    46    43    40 1   
    47    43    41 1   
    48    27    42 1   
@<TRIPOS>SUBSTRUCTURE
     1 5O0         1 TEMP              0 ****  ****    0 ROOT
