@<TRIPOS>MOLECULE
5O1
   59    63     1     0     0
SMALL
bcc


@<TRIPOS>ATOM
      1 C1           0.0000     0.0000     0.0000 ca         1 5O1      -0.265600
      2 N5           1.4110     0.0120     2.3510 nb         1 5O1      -0.668000
      3 C6          -5.0400     1.0000    -3.2400 ca         1 5O1      -0.133000
      4 C7          -6.2550     0.3320    -3.3780 ca         1 5O1       0.054000
      5 C8          -6.7400    -0.4510    -2.3350 ca         1 5O1      -0.200000
      6 C9          -6.0150    -0.5640    -1.1620 ca         1 5O1       0.130100
      7 C10         -7.7370    -1.9880    -0.3480 c3         1 5O1       0.247700
      8 C11         -7.0310     0.4560    -4.6380 cc         1 5O1      -0.264300
      9 C12         -8.2680    -0.1580    -4.9170 cc         1 5O1       0.403200
     10 C13         -6.6800     1.1910    -5.7320 cd         1 5O1      -0.240300
     11 C15          1.4060     0.0000     0.0000 ca         1 5O1      -0.257300
     12 C18          0.2730     0.0390     4.8930 c3         1 5O1       0.128500
     13 C19         -0.5420     0.6590     6.0280 c3         1 5O1      -0.039400
     14 C20          0.2960     0.6780     7.3070 c3         1 5O1      -0.018400
     15 C21          0.6850    -0.7540     7.6830 c3         1 5O1      -0.027400
     16 C22          1.5020    -1.3740     6.5460 c3         1 5O1      -0.018400
     17 C23          0.6630    -1.3920     5.2670 c3         1 5O1      -0.039400
     18 N4          -7.6510     1.0360    -6.6570 na         1 5O1       0.491400
     19 N3          -8.6310     0.1900    -6.1240 nd         1 5O1      -0.650800
     20 C5          -4.3160     0.8820    -2.0720 ca         1 5O1      -0.066000
     21 O           -6.4870    -1.3300    -0.1420 os         1 5O1      -0.315900
     22 C4          -4.8010     0.1060    -1.0280 ca         1 5O1      -0.046400
     23 C3          -2.6800    -0.0080     0.1140 ca         1 5O1       0.683900
     24 N           -2.0770    -0.0100    -1.0730 nb         1 5O1      -0.652000
     25 C2          -0.7640    -0.0060    -1.1800 ca         1 5O1       0.486200
     26 N1          -2.0110    -0.0020     1.2530 nb         1 5O1      -0.685000
     27 C           -0.6760     0.0030     1.2460 ca         1 5O1       0.290300
     28 C17          0.0950     0.0090     2.4290 ca         1 5O1       0.461900
     29 C16          2.0600     0.0000     1.1950 ca         1 5O1       0.440200
     30 N6          -0.5300     0.0210     3.6670 nu         1 5O1      -0.473900
     31 H1          -4.6610     1.6080    -4.0520 ha         1 5O1       0.106000
     32 H2          -7.6850    -0.9710    -2.4410 ha         1 5O1       0.126000
     33 H3          -8.5070    -1.2490    -0.5360 h1         1 5O1      -0.001967
     34 H4          -7.9940    -2.5600     0.5350 h1         1 5O1      -0.001967
     35 H5          -7.6590    -2.6530    -1.2000 h1         1 5O1      -0.001967
     36 H6          -8.8210    -0.8080    -4.2500 h4         1 5O1       0.004100
     37 H7          -5.8370     1.8670    -5.8020 h4         1 5O1       0.150000
     38 H8           1.9580    -0.0100    -0.9320 ha         1 5O1       0.116000
     39 H9           1.1700     0.6250     4.7330 h1         1 5O1       0.057700
     40 H10         -1.4360     0.0690     6.1920 hc         1 5O1       0.020200
     41 H11         -0.8160     1.6730     5.7620 hc         1 5O1       0.020200
     42 H12         -0.2840     1.1150     8.1110 hc         1 5O1       0.014950
     43 H13          1.1920     1.2630     7.1410 hc         1 5O1       0.014950
     44 H14          1.2810    -0.7390     8.5870 hc         1 5O1       0.013200
     45 H15         -0.2110    -1.3400     7.8430 hc         1 5O1       0.013200
     46 H16          1.7750    -2.3880     6.8120 hc         1 5O1       0.014950
     47 H17          2.3960    -0.7850     6.3820 hc         1 5O1       0.014950
     48 H18         -0.2330    -1.9780     5.4320 hc         1 5O1       0.020200
     49 H19          1.2430    -1.8290     4.4630 hc         1 5O1       0.020200
     50 H20         -7.6700     2.7290    -7.8860 h1         1 5O1       0.021700
     51 H21         -8.5760     1.3430    -8.5090 h1         1 5O1       0.021700
     52 H22         -6.8070     1.3330    -8.5480 h1         1 5O1       0.021700
     53 H23         -3.3720     1.4020    -1.9660 ha         1 5O1       0.131000
     54 H24         -4.5360    -0.0670     1.0370 hn         1 5O1       0.297800
     55 H25         -0.2860    -0.0070    -2.1510 h4         1 5O1      -0.012900
     56 H26          3.1430     0.0040     1.2000 h4         1 5O1      -0.025900
     57 H27         -1.5290     0.0490     3.7220 hn         1 5O1       0.309800
     58 N2          -4.0630    -0.0130     0.1570 nu         1 5O1      -0.270300
     59 C14         -7.6780     1.6500    -7.9870 c3         1 5O1       0.023600
@<TRIPOS>BOND
     1     1    11 ar  
     2     1    25 ar  
     3     1    27 ar  
     4     2    28 ar  
     5     2    29 ar  
     6     3     4 ar  
     7     3    20 ar  
     8     3    31 1   
     9     4     5 ar  
    10     4     8 1   
    11     5     6 ar  
    12     5    32 1   
    13     6    21 1   
    14     6    22 ar  
    15     7    21 1   
    16     7    33 1   
    17     7    34 1   
    18     7    35 1   
    19     8     9 1   
    20     8    10 2   
    21     9    19 2   
    22     9    36 1   
    23    10    18 1   
    24    10    37 1   
    25    11    29 ar  
    26    11    38 1   
    27    12    13 1   
    28    12    17 1   
    29    12    30 1   
    30    12    39 1   
    31    13    14 1   
    32    13    40 1   
    33    13    41 1   
    34    14    15 1   
    35    14    42 1   
    36    14    43 1   
    37    15    16 1   
    38    15    44 1   
    39    15    45 1   
    40    16    17 1   
    41    16    46 1   
    42    16    47 1   
    43    17    48 1   
    44    17    49 1   
    45    18    19 1   
    46    18    59 1   
    47    20    22 ar  
    48    20    53 1   
    49    22    58 1   
    50    23    24 ar  
    51    23    26 ar  
    52    23    58 1   
    53    24    25 ar  
    54    25    55 1   
    55    26    27 ar  
    56    27    28 ar  
    57    28    30 1   
    58    29    56 1   
    59    30    57 1   
    60    50    59 1   
    61    51    59 1   
    62    52    59 1   
    63    54    58 1   
@<TRIPOS>SUBSTRUCTURE
     1 5O1         1 TEMP              0 ****  ****    0 ROOT
