@<TRIPOS>MOLECULE
molecule
   59    63     1     0     0
SMALL
bcc


@<TRIPOS>ATOM
      1 C1           0.0000     0.0000     0.0000 ca         1 5O1      -0.273600
      2 N5           1.4110     0.0120     2.3510 nb         1 5O1      -0.769000
      3 C6          -5.0400     1.0000    -3.2400 ca         1 5O1      -0.154000
      4 C7          -6.2550     0.3320    -3.3780 ca         1 5O1       0.034000
      5 C8          -6.7400    -0.4510    -2.3350 ca         1 5O1      -0.204000
      6 C9          -6.0150    -0.5640    -1.1620 ca         1 5O1       0.115100
      7 C10         -7.7370    -1.9880    -0.3480 c3         1 5O1       0.130700
      8 C11         -7.0310     0.4560    -4.6380 cc         1 5O1      -0.261300
      9 C12         -8.2680    -0.1580    -4.9170 cc         1 5O1       0.345200
     10 C13         -6.6800     1.1910    -5.7320 cd         1 5O1      -0.097300
     11 C15          1.4060     0.0000     0.0000 ca         1 5O1      -0.284300
     12 C18          0.2730     0.0390     4.8930 c3         1 5O1       0.243500
     13 C19         -0.5420     0.6590     6.0280 c3         1 5O1      -0.093900
     14 C20          0.2960     0.6780     7.3070 c3         1 5O1      -0.076900
     15 C21          0.6850    -0.7540     7.6830 c3         1 5O1      -0.083400
     16 C22          1.5020    -1.3740     6.5460 c3         1 5O1      -0.076900
     17 C23          0.6630    -1.3920     5.2670 c3         1 5O1      -0.093900
     18 N4          -7.6510     1.0360    -6.6570 na         1 5O1       0.066400
     19 N3          -8.6310     0.1900    -6.1240 nd         1 5O1      -0.512800
     20 C5          -4.3160     0.8820    -2.0720 ca         1 5O1      -0.088000
     21 O           -6.4870    -1.3300    -0.1420 os         1 5O1      -0.335900
     22 C4          -4.8010     0.1060    -1.0280 ca         1 5O1       0.125600
     23 C3          -2.6800    -0.0080     0.1140 ca         1 5O1       0.923900
     24 N           -2.0770    -0.0100    -1.0730 nb         1 5O1      -0.762000
     25 C2          -0.7640    -0.0060    -1.1800 ca         1 5O1       0.503200
     26 N1          -2.0110    -0.0020     1.2530 nb         1 5O1      -0.786000
     27 C           -0.6760     0.0030     1.2460 ca         1 5O1       0.329300
     28 C17          0.0950     0.0090     2.4290 ca         1 5O1       0.657900
     29 C16          2.0600     0.0000     1.1950 ca         1 5O1       0.451200
     30 N6          -0.5300     0.0210     3.6670 nu         1 5O1      -0.889900
     31 H1          -4.6610     1.6080    -4.0520 ha         1 5O1       0.128000
     32 H2          -7.6850    -0.9710    -2.4410 ha         1 5O1       0.137000
     33 H3          -8.5070    -1.2490    -0.5360 h1         1 5O1       0.041367
     34 H4          -7.9940    -2.5600     0.5350 h1         1 5O1       0.041367
     35 H5          -7.6590    -2.6530    -1.2000 h1         1 5O1       0.041367
     36 H6          -8.8210    -0.8080    -4.2500 h4         1 5O1       0.048100
     37 H7          -5.8370     1.8670    -5.8020 h4         1 5O1       0.173000
     38 H8           1.9580    -0.0100    -0.9320 ha         1 5O1       0.137000
     39 H9           1.1700     0.6250     4.7330 h1         1 5O1       0.079700
     40 H10         -1.4360     0.0690     6.1920 hc         1 5O1       0.048200
     41 H11         -0.8160     1.6730     5.7620 hc         1 5O1       0.048200
     42 H12         -0.2840     1.1150     8.1110 hc         1 5O1       0.044200
     43 H13          1.1920     1.2630     7.1410 hc         1 5O1       0.044200
     44 H14          1.2810    -0.7390     8.5870 hc         1 5O1       0.041700
     45 H15         -0.2110    -1.3400     7.8430 hc         1 5O1       0.041700
     46 H16          1.7750    -2.3880     6.8120 hc         1 5O1       0.044200
     47 H17          2.3960    -0.7850     6.3820 hc         1 5O1       0.044200
     48 H18         -0.2330    -1.9780     5.4320 hc         1 5O1       0.048200
     49 H19          1.2430    -1.8290     4.4630 hc         1 5O1       0.048200
     50 H20         -7.6700     2.7290    -7.8860 h1         1 5O1       0.055700
     51 H21         -8.5760     1.3430    -8.5090 h1         1 5O1       0.055700
     52 H22         -6.8070     1.3330    -8.5480 h1         1 5O1       0.055700
     53 H23         -3.3720     1.4020    -1.9660 ha         1 5O1       0.158000
     54 H24         -4.5360    -0.0670     1.0370 hn         1 5O1       0.473800
     55 H25         -0.2860    -0.0070    -2.1510 h4         1 5O1       0.036100
     56 H26          3.1430     0.0040     1.2000 h4         1 5O1       0.019100
     57 H27         -1.5290     0.0490     3.7220 hn         1 5O1       0.462800
     58 N2          -4.0630    -0.0130     0.1570 nu         1 5O1      -0.743300
     59 C14         -7.6780     1.6500    -7.9870 c3         1 5O1       0.063600
@<TRIPOS>BOND
     1    17    16 1
     2    17    12 1
     3    29     2 ar
     4    29    11 ar
     5     2    28 ar
     6    16    15 1
     7    12    13 1
     8    12    30 1
     9    11     1 ar
    10    15    14 1
    11    28    30 1
    12    28    27 ar
    13    13    14 1
    14     1    27 ar
    15     1    25 ar
    16    27    26 ar
    17    25    24 ar
    18    26    23 ar
    19    24    23 ar
    20    23    58 1
    21    20     3 ar
    22    20    22 ar
    23     3     4 ar
    24    58    22 1
    25    22     6 ar
    26    10     8 2
    27    10    18 1
    28     4     8 1
    29     4     5 ar
    30    59    18 1
    31     8     9 1
    32    18    19 1
    33     6     5 ar
    34     6    21 1
    35     9    19 2
    36    21     7 1
    37     3    31 1
    38     5    32 1
    39     7    33 1
    40     7    34 1
    41     7    35 1
    42     9    36 1
    43    10    37 1
    44    11    38 1
    45    12    39 1
    46    13    40 1
    47    13    41 1
    48    14    42 1
    49    14    43 1
    50    15    44 1
    51    15    45 1
    52    16    46 1
    53    16    47 1
    54    17    48 1
    55    17    49 1
    56    59    50 1
    57    59    51 1
    58    59    52 1
    59    20    53 1
    60    58    54 1
    61    25    55 1
    62    29    56 1
    63    30    57 1
@<TRIPOS>SUBSTRUCTURE
     1 5O1         1 TEMP              0 ****  ****    0 ROOT
