@<TRIPOS>MOLECULE
molecule
   92    99     1     0     0
SMALL
bcc


@<TRIPOS>ATOM
      1 N2           0.0000     0.0000     0.0000 na         1 5O2       0.059900
      2 C8           2.0440    -0.0000    -1.2860 cp         1 5O2      -0.136000
      3 C7           1.3130     0.0000     0.0000 cp         1 5O2       0.175700
      4 C6          -0.7390     0.0000     1.1210 ca         1 5O2       0.019700
      5 C5          -2.1390     0.0000     1.0420 ca         1 5O2      -0.248000
      6 C19          4.1080     0.0020     2.5100 ca         1 5O2       0.177600
      7 C18          3.3840     0.0010     3.7030 ca         1 5O2      -0.071000
      8 N3           5.5040     0.0020     2.5470 nv         1 5O2      -0.987200
      9 C11          3.4230    -0.0060    -3.6880 ca         1 5O2      -0.080000
     10 C12          3.6040     1.0330    -2.7930 ca         1 5O2      -0.119000
     11 C13          2.9210     1.0410    -1.5940 ca         1 5O2      -0.094500
     12 C14          2.0610     0.0000     1.2590 ca         1 5O2      -0.109000
     13 C15          3.4550     0.0010     1.2900 ca         1 5O2      -0.093000
     14 C16          1.3380     0.0010     2.4760 ca         1 5O2       0.033000
     15 C17          2.0190     0.0010     3.6920 ca         1 5O2      -0.130000
     16 C10          2.5560    -1.0420    -3.3890 ca         1 5O2      -0.119000
     17 C9           1.8670    -1.0450    -2.1940 ca         1 5O2      -0.094500
     18 C4          -0.1270     0.0010     2.3970 ca         1 5O2      -0.087000
     19 C3          -0.9120     0.0020     3.5500 ca         1 5O2      -0.048000
     20 C2          -2.2740     0.0030     3.4500 ca         1 5O2      -0.164000
     21 C1          -2.8920     0.0010     2.1980 ca         1 5O2       0.253600
     22 N1          -4.2860     0.0010     2.1160 nv         1 5O2      -0.888200
     23 C20         -0.6950     0.0060    -1.2900 c3         1 5O2      -0.028700
     24 C21         -1.0170     1.4480    -1.6880 c3         1 5O2      -0.101400
     25 C22         -1.8470     1.4480    -2.9740 c3         1 5O2      -0.081400
     26 C24         -2.1690     2.8900    -3.3730 c3         1 5O2      -0.076400
     27 C25         -2.9990     2.8900    -4.6580 c3         1 5O2      -0.084700
     28 C26         -3.3160     4.3110    -5.0500 cc         1 5O2       0.265600
     29 N4          -3.9140     5.2360    -4.2920 nc         1 5O2      -0.367000
     30 N5          -4.0140     6.3270    -4.9670 nd         1 5O2      -0.192800
     31 N6          -3.5100     6.1700    -6.1410 na         1 5O2       0.130400
     32 C27         -3.0480     4.9010    -6.2380 cd         1 5O2      -0.282600
     33 C28         -3.4440     7.1900    -7.1910 c3         1 5O2       0.045300
     34 C29         -4.8470     7.7380    -7.4570 c3         1 5O2       0.198800
     35 N7          -4.7800     8.7620    -8.5090 nu         1 5O2      -0.825600
     36 C30         -6.0490     9.1970    -8.8600 ca         1 5O2       0.157600
     37 C31         -6.7010    10.2020    -8.1120 ca         1 5O2      -0.181300
     38 C32         -6.0980    10.7950    -6.9950 ca         1 5O2      -0.121000
     39 C33         -7.9960    10.6130    -8.5130 ca         1 5O2       0.430600
     40 C34         -8.6520    11.6140    -7.7760 ca         1 5O2      -0.159300
     41 C35         -8.0380    12.1690    -6.6950 ca         1 5O2      -0.121000
     42 C36         -6.7640    11.7630    -6.3040 ca         1 5O2      -0.120000
     43 N8          -8.5700    10.0460    -9.5740 nb         1 5O2      -0.690000
     44 C37         -7.9780     9.1000   -10.2850 ca         1 5O2       0.454600
     45 C38         -8.7490     8.5390   -11.4540 c3         1 5O2      -0.125700
     46 C39         -6.7080     8.6570    -9.9610 ca         1 5O2      -0.180600
     47 C40         -5.9900     7.5950   -10.7500 c3         1 5O2      -0.021100
     48 C41         -6.9750     6.8060   -11.6110 c3         1 5O2      -0.087400
     49 C42         -7.8100     7.8230   -12.4230 c3         1 5O2      -0.083400
     50 H1          -2.6290    -0.0010     0.0750 ha         1 5O2       0.154000
     51 H2           3.9120     0.0000     4.6490 ha         1 5O2       0.163000
     52 H3           6.0060    -0.8610     2.4770 hn         1 5O2       0.444800
     53 H4           6.0020     0.8640     2.6430 hn         1 5O2       0.444800
     54 H5           3.9620    -0.0080    -4.6280 ha         1 5O2       0.156000
     55 H6           4.2840     1.8410    -3.0330 ha         1 5O2       0.156500
     56 H7           3.0630     1.8550    -0.8940 ha         1 5O2       0.146000
     57 H8           4.0220     0.0020     0.3660 ha         1 5O2       0.163000
     58 H9           1.4680    -0.0010     4.6240 ha         1 5O2       0.155000
     59 H10          2.4190    -1.8530    -4.0940 ha         1 5O2       0.156500
     60 H11          1.1890    -1.8570    -1.9600 ha         1 5O2       0.146000
     61 H12         -0.4410     0.0030     4.5260 ha         1 5O2       0.158000
     62 H13         -2.8790     0.0030     4.3490 ha         1 5O2       0.158000
     63 H14         -4.7340    -0.0170     1.2220 hn         1 5O2       0.449300
     64 H15         -4.8360     0.0120     2.9520 hn         1 5O2       0.449300
     65 H16         -0.0610    -0.4440    -2.0440 h1         1 5O2       0.096700
     66 H17         -1.6150    -0.5600    -1.2070 h1         1 5O2       0.096700
     67 H18         -0.0950     1.9920    -1.8540 hc         1 5O2       0.064700
     68 H19         -1.5800     1.9250    -0.8950 hc         1 5O2       0.064700
     69 H20         -2.7690     0.9050    -2.8090 hc         1 5O2       0.046700
     70 H21         -1.2840     0.9710    -3.7670 hc         1 5O2       0.046700
     71 H22         -2.7310     3.3670    -2.5790 hc         1 5O2       0.058200
     72 H23         -1.2460     3.4340    -3.5390 hc         1 5O2       0.058200
     73 H24         -3.9220     2.3470    -4.4920 hc         1 5O2       0.053700
     74 H25         -2.4370     2.4130    -5.4510 hc         1 5O2       0.053700
     75 H26         -2.5670     4.4480    -7.0960 h4         1 5O2       0.183000
     76 H27         -3.0490     6.7500    -8.0980 h1         1 5O2       0.074200
     77 H28         -2.7960     7.9970    -6.8700 h1         1 5O2       0.074200
     78 H29         -5.4940     6.9320    -7.7790 h1         1 5O2       0.060200
     79 H30         -5.2410     8.1780    -6.5490 h1         1 5O2       0.060200
     80 H31         -4.0070     9.3960    -8.5420 hn         1 5O2       0.428800
     81 H32         -5.1080    10.4870    -6.6820 ha         1 5O2       0.125000
     82 H33         -9.6420    11.9420    -8.0660 ha         1 5O2       0.152000
     83 H34         -8.5480    12.9400    -6.1310 ha         1 5O2       0.136000
     84 H35         -6.2980    12.2210    -5.4400 ha         1 5O2       0.132000
     85 H36         -9.2470     9.3490   -11.9740 hc         1 5O2       0.066700
     86 H37         -9.4870     7.8350   -11.0890 hc         1 5O2       0.066700
     87 H38         -5.4940     6.9170   -10.0660 hc         1 5O2       0.053200
     88 H39         -5.2540     8.0650   -11.3920 hc         1 5O2       0.053200
     89 H40         -6.4310     6.1570   -12.2870 hc         1 5O2       0.045200
     90 H41         -7.6280     6.2200   -10.9760 hc         1 5O2       0.045200
     91 H42         -7.1520     8.5430   -12.8930 hc         1 5O2       0.050200
     92 H43         -8.3900     7.3010   -13.1750 hc         1 5O2       0.050200
@<TRIPOS>BOND
     1    22    21 1   
     2    21    20 ar  
     3    21     5 ar  
     4    20    19 ar  
     5     5     4 ar  
     6    19    18 ar  
     7     4    18 ar  
     8     4     1 2   
     9    18    14 ar  
    10    23     1 1   
    11    23    24 1   
    12     1     3 1   
    13    24    25 1   
    14    14    15 ar  
    15    14    12 ar  
    16    15     7 ar  
    17     3    12 ar  
    18     3     2 1   
    19    12    13 ar  
    20    25    26 1   
    21     7     6 ar  
    22    26    27 1   
    23    27    28 1   
    24     2    11 ar  
    25     2    17 ar  
    26    13     6 ar  
    27     6     8 1   
    28    11    10 ar  
    29    28    29 1   
    30    28    32 2   
    31    17    16 ar  
    32    10     9 ar  
    33    29    30 2   
    34    32    31 1   
    35    16     9 ar  
    36    31    30 1   
    37    31    33 1   
    38    49    45 1   
    39    49    48 1   
    40    45    44 1   
    41    33    34 1   
    42    48    47 1   
    43    47    46 1   
    44    44    46 ar  
    45    44    43 ar  
    46    46    36 ar  
    47    43    39 ar  
    48    34    35 1   
    49    39    40 ar  
    50    39    37 ar  
    51    36    35 1   
    52    36    37 ar  
    53    40    41 ar  
    54    37    38 ar  
    55    41    42 ar  
    56    38    42 ar  
    57     5    50 1   
    58     7    51 1   
    59     8    52 1   
    60     8    53 1   
    61     9    54 1   
    62    10    55 1   
    63    11    56 1   
    64    13    57 1   
    65    15    58 1   
    66    16    59 1   
    67    17    60 1   
    68    19    61 1   
    69    20    62 1   
    70    22    63 1   
    71    22    64 1   
    72    23    65 1   
    73    23    66 1   
    74    24    67 1   
    75    24    68 1   
    76    25    69 1   
    77    25    70 1   
    78    26    71 1   
    79    26    72 1   
    80    27    73 1   
    81    27    74 1   
    82    32    75 1   
    83    33    76 1   
    84    33    77 1   
    85    34    78 1   
    86    34    79 1   
    87    35    80 1   
    88    38    81 1   
    89    40    82 1   
    90    41    83 1   
    91    42    84 1   
    92    45    85 1   
    93    45    86 1   
    94    47    87 1   
    95    47    88 1   
    96    48    89 1   
    97    48    90 1   
    98    49    91 1   
    99    49    92 1   
@<TRIPOS>SUBSTRUCTURE
     1 5O2         1 TEMP              0 ****  ****    0 ROOT
