@<TRIPOS>MOLECULE
5O2
   92    99     1     0     0
SMALL
bcc


@<TRIPOS>ATOM
      1 N2           0.0000     0.0000     0.0000 na         1 5O2       0.659900
      2 C8           2.0440    -0.0000    -1.2860 cp         1 5O2      -0.129000
      3 C7           1.3130     0.0000     0.0000 cp         1 5O2      -0.053300
      4 C6          -0.7390     0.0000     1.1210 ca         1 5O2      -0.197300
      5 C5          -2.1390     0.0000     1.0420 ca         1 5O2      -0.225000
      6 C19          4.1080     0.0020     2.5100 ca         1 5O2       0.054600
      7 C18          3.3840     0.0010     3.7030 ca         1 5O2      -0.044000
      8 N3           5.5040     0.0020     2.5470 nv         1 5O2      -0.558200
      9 C11          3.4230    -0.0060    -3.6880 ca         1 5O2      -0.051000
     10 C12          3.6040     1.0330    -2.7930 ca         1 5O2      -0.084500
     11 C13          2.9210     1.0410    -1.5940 ca         1 5O2      -0.073500
     12 C14          2.0610     0.0000     1.2590 ca         1 5O2      -0.087000
     13 C15          3.4550     0.0010     1.2900 ca         1 5O2      -0.073000
     14 C16          1.3380     0.0010     2.4760 ca         1 5O2       0.017000
     15 C17          2.0190     0.0010     3.6920 ca         1 5O2      -0.095000
     16 C10          2.5560    -1.0420    -3.3890 ca         1 5O2      -0.084500
     17 C9           1.8670    -1.0450    -2.1940 ca         1 5O2      -0.073500
     18 C4          -0.1270     0.0010     2.3970 ca         1 5O2      -0.047000
     19 C3          -0.9120     0.0020     3.5500 ca         1 5O2      -0.029000
     20 C2          -2.2740     0.0030     3.4500 ca         1 5O2      -0.114000
     21 C1          -2.8920     0.0010     2.1980 ca         1 5O2       0.089600
     22 N1          -4.2860     0.0010     2.1160 nv         1 5O2      -0.387200
     23 C20         -0.6950     0.0060    -1.2900 c3         1 5O2      -0.183700
     24 C21         -1.0170     1.4480    -1.6880 c3         1 5O2      -0.039400
     25 C22         -1.8470     1.4480    -2.9740 c3         1 5O2      -0.022400
     26 C24         -2.1690     2.8900    -3.3730 c3         1 5O2      -0.029400
     27 C25         -2.9990     2.8900    -4.6580 c3         1 5O2      -0.015700
     28 C26         -3.3160     4.3110    -5.0500 cc         1 5O2       0.255600
     29 N4          -3.9140     5.2360    -4.2920 nc         1 5O2      -0.319000
     30 N5          -4.0140     6.3270    -4.9670 nd         1 5O2      -0.364800
     31 N6          -3.5100     6.1700    -6.1410 na         1 5O2       0.603400
     32 C27         -3.0480     4.9010    -6.2380 cd         1 5O2      -0.444600
     33 C28         -3.4440     7.1900    -7.1910 c3         1 5O2      -0.041700
     34 C29         -4.8470     7.7380    -7.4570 c3         1 5O2       0.142800
     35 N7          -4.7800     8.7620    -8.5090 nu         1 5O2      -0.476600
     36 C30         -6.0490     9.1970    -8.8600 ca         1 5O2       0.030600
     37 C31         -6.7010    10.2020    -8.1120 ca         1 5O2      -0.166300
     38 C32         -6.0980    10.7950    -6.9950 ca         1 5O2      -0.105000
     39 C33         -7.9960    10.6130    -8.5130 ca         1 5O2       0.380600
     40 C34         -8.6520    11.6140    -7.7760 ca         1 5O2      -0.131300
     41 C35         -8.0380    12.1690    -6.6950 ca         1 5O2      -0.097000
     42 C36         -6.7640    11.7630    -6.3040 ca         1 5O2      -0.083000
     43 N8          -8.5700    10.0460    -9.5740 nb         1 5O2      -0.564000
     44 C37         -7.9780     9.1000   -10.2850 ca         1 5O2       0.396600
     45 C38         -8.7490     8.5390   -11.4540 c3         1 5O2      -0.068700
     46 C39         -6.7080     8.6570    -9.9610 ca         1 5O2      -0.165600
     47 C40         -5.9900     7.5950   -10.7500 c3         1 5O2       0.038900
     48 C41         -6.9750     6.8060   -11.6110 c3         1 5O2      -0.030400
     49 C42         -7.8100     7.8230   -12.4230 c3         1 5O2      -0.026400
     50 H1          -2.6290    -0.0010     0.0750 ha         1 5O2       0.141000
     51 H2           3.9120     0.0000     4.6490 ha         1 5O2       0.125000
     52 H3           6.0060    -0.8610     2.4770 hn         1 5O2       0.289300
     53 H4           6.0020     0.8640     2.6430 hn         1 5O2       0.289300
     54 H5           3.9620    -0.0080    -4.6280 ha         1 5O2       0.120000
     55 H6           4.2840     1.8410    -3.0330 ha         1 5O2       0.122500
     56 H7           3.0630     1.8550    -0.8940 ha         1 5O2       0.116500
     57 H8           4.0220     0.0020     0.3660 ha         1 5O2       0.135000
     58 H9           1.4680    -0.0010     4.6240 ha         1 5O2       0.126000
     59 H10          2.4190    -1.8530    -4.0940 ha         1 5O2       0.122500
     60 H11          1.1890    -1.8570    -1.9600 ha         1 5O2       0.116500
     61 H12         -0.4410     0.0030     4.5260 ha         1 5O2       0.128000
     62 H13         -2.8790     0.0030     4.3490 ha         1 5O2       0.128000
     63 H14         -4.7340    -0.0170     1.2220 hn         1 5O2       0.279300
     64 H15         -4.8360     0.0120     2.9520 hn         1 5O2       0.279300
     65 H16         -0.0610    -0.4440    -2.0440 h1         1 5O2       0.083700
     66 H17         -1.6150    -0.5600    -1.2070 h1         1 5O2       0.083700
     67 H18         -0.0950     1.9920    -1.8540 hc         1 5O2       0.034200
     68 H19         -1.5800     1.9250    -0.8950 hc         1 5O2       0.034200
     69 H20         -2.7690     0.9050    -2.8090 hc         1 5O2       0.018700
     70 H21         -1.2840     0.9710    -3.7670 hc         1 5O2       0.018700
     71 H22         -2.7310     3.3670    -2.5790 hc         1 5O2       0.028200
     72 H23         -1.2460     3.4340    -3.5390 hc         1 5O2       0.028200
     73 H24         -3.9220     2.3470    -4.4920 hc         1 5O2       0.019200
     74 H25         -2.4370     2.4130    -5.4510 hc         1 5O2       0.019200
     75 H26         -2.5670     4.4480    -7.0960 h4         1 5O2       0.163000
     76 H27         -3.0490     6.7500    -8.0980 h1         1 5O2       0.043200
     77 H28         -2.7960     7.9970    -6.8700 h1         1 5O2       0.043200
     78 H29         -5.4940     6.9320    -7.7790 h1         1 5O2       0.032700
     79 H30         -5.2410     8.1780    -6.5490 h1         1 5O2       0.032700
     80 H31         -4.0070     9.3960    -8.5420 hn         1 5O2       0.292800
     81 H32         -5.1080    10.4870    -6.6820 ha         1 5O2       0.102000
     82 H33         -9.6420    11.9420    -8.0660 ha         1 5O2       0.120000
     83 H34         -8.5480    12.9400    -6.1310 ha         1 5O2       0.106000
     84 H35         -6.2980    12.2210    -5.4400 ha         1 5O2       0.103000
     85 H36         -9.2470     9.3490   -11.9740 hc         1 5O2       0.031700
     86 H37         -9.4870     7.8350   -11.0890 hc         1 5O2       0.031700
     87 H38         -5.4940     6.9170   -10.0660 hc         1 5O2       0.023700
     88 H39         -5.2540     8.0650   -11.3920 hc         1 5O2       0.023700
     89 H40         -6.4310     6.1570   -12.2870 hc         1 5O2       0.016700
     90 H41         -7.6280     6.2200   -10.9760 hc         1 5O2       0.016700
     91 H42         -7.1520     8.5430   -12.8930 hc         1 5O2       0.020200
     92 H43         -8.3900     7.3010   -13.1750 hc         1 5O2       0.020200
@<TRIPOS>BOND
     1     1     3 1   
     2     1     4 2   
     3     1    23 1   
     4     2     3 1   
     5     2    11 ar  
     6     2    17 ar  
     7     3    12 ar  
     8     4     5 ar  
     9     4    18 ar  
    10     5    21 ar  
    11     5    50 1   
    12     6     7 ar  
    13     6     8 1   
    14     6    13 ar  
    15     7    15 ar  
    16     7    51 1   
    17     8    52 1   
    18     8    53 1   
    19     9    10 ar  
    20     9    16 ar  
    21     9    54 1   
    22    10    11 ar  
    23    10    55 1   
    24    11    56 1   
    25    12    13 ar  
    26    12    14 ar  
    27    13    57 1   
    28    14    15 ar  
    29    14    18 ar  
    30    15    58 1   
    31    16    17 ar  
    32    16    59 1   
    33    17    60 1   
    34    18    19 ar  
    35    19    20 ar  
    36    19    61 1   
    37    20    21 ar  
    38    20    62 1   
    39    21    22 1   
    40    22    63 1   
    41    22    64 1   
    42    23    24 1   
    43    23    65 1   
    44    23    66 1   
    45    24    25 1   
    46    24    67 1   
    47    24    68 1   
    48    25    26 1   
    49    25    69 1   
    50    25    70 1   
    51    26    27 1   
    52    26    71 1   
    53    26    72 1   
    54    27    28 1   
    55    27    73 1   
    56    27    74 1   
    57    28    29 1   
    58    28    32 2   
    59    29    30 2   
    60    30    31 1   
    61    31    32 1   
    62    31    33 1   
    63    32    75 1   
    64    33    34 1   
    65    33    76 1   
    66    33    77 1   
    67    34    35 1   
    68    34    78 1   
    69    34    79 1   
    70    35    36 1   
    71    35    80 1   
    72    36    37 ar  
    73    36    46 ar  
    74    37    38 ar  
    75    37    39 ar  
    76    38    42 ar  
    77    38    81 1   
    78    39    40 ar  
    79    39    43 ar  
    80    40    41 ar  
    81    40    82 1   
    82    41    42 ar  
    83    41    83 1   
    84    42    84 1   
    85    43    44 ar  
    86    44    45 1   
    87    44    46 ar  
    88    45    49 1   
    89    45    85 1   
    90    45    86 1   
    91    46    47 1   
    92    47    48 1   
    93    47    87 1   
    94    47    88 1   
    95    48    49 1   
    96    48    89 1   
    97    48    90 1   
    98    49    91 1   
    99    49    92 1   
@<TRIPOS>SUBSTRUCTURE
     1 5O2         1 TEMP              0 ****  ****    0 ROOT
