@<TRIPOS>MOLECULE
molecule
   47    49     1     0     0
SMALL
bcc


@<TRIPOS>ATOM
      1 C1           0.0000     0.0000     0.0000 ca         1 5O3      -0.190000
      2 C2           1.3830     0.0000     0.0000 ca         1 5O3       0.051400
      3 C3           2.0790     0.0000     1.1960 ca         1 5O3      -0.157000
      4 C4           1.3960     0.0000     2.3970 ca         1 5O3      -0.088000
      5 C5           0.0090     0.0010     2.4070 ca         1 5O3       0.005600
      6 C6          -0.0730     0.4230     4.7490 c          1 5O3       0.784100
      7 C7          -0.1170     0.8640     7.0880 ca         1 5O3       0.036600
      8 C8           0.6460     2.0220     7.0000 ca         1 5O3      -0.076000
      9 C9           1.2200     2.5550     8.1370 ca         1 5O3      -0.131000
     10 C10          1.0400     1.9370     9.3610 ca         1 5O3      -0.025000
     11 C11          0.2820     0.7830     9.4510 ca         1 5O3      -0.284500
     12 C12         -1.5480     1.8950    11.9150 ca         1 5O3       0.081600
     13 C13         -0.5540     2.5880    12.6000 ca         1 5O3      -0.177500
     14 C14         -0.7130     3.9200    12.8790 ca         1 5O3      -0.091000
     15 C15         -1.8750     4.5840    12.4740 ca         1 5O3      -0.100600
     16 C16         -2.0490     6.0170    12.7710 c          1 5O3       0.879200
     17 C17         -2.8720     3.8860    11.7850 ca         1 5O3      -0.091000
     18 C18         -2.7070     2.5520    11.5100 ca         1 5O3      -0.177500
     19 C19         -0.3010     0.2490     8.3180 ca         1 5O3      -0.064000
     20 Cl           2.2490    -0.0000    -1.5050 cl         1 5O3      -0.123400
     21 C           -0.6920     0.0060     1.2010 ca         1 5O3       0.176600
     22 N3          -1.3830     0.5440    11.6300 nu         1 5O3      -0.762500
     23 N           -2.0920     0.0070     1.2050 nv         1 5O3      -0.927200
     24 O            1.0450     0.8970     4.6920 o          1 5O3      -0.635100
     25 N1          -0.6850     0.0010     3.6250 ns         1 5O3      -0.484100
     26 S            0.0540    -0.0010    11.0120 sy         1 5O3       1.425200
     27 O1          -0.1230    -1.3850    10.7430 o          1 5O3      -0.649300
     28 O2           1.0740     0.5010    11.8650 o          1 5O3      -0.649300
     29 N2          -0.7020     0.3220     5.9370 ns         1 5O3      -0.486100
     30 O4          -1.1820     6.6240    13.3690 o          1 5O3      -0.834800
     31 O3          -3.1700     6.6550    12.3800 o          1 5O3      -0.834800
     32 H1          -0.5420     0.0360    -0.9370 ha         1 5O3       0.141000
     33 H2           3.1630    -0.0010     1.1900 ha         1 5O3       0.146000
     34 H3           1.9430    -0.0460     3.3310 ha         1 5O3       0.189000
     35 H4           0.7900     2.5060     6.0420 ha         1 5O3       0.161000
     36 H5           1.8150     3.4580     8.0700 ha         1 5O3       0.144000
     37 H6           1.4940     2.3560    10.2510 ha         1 5O3       0.164000
     38 H7           0.3460     2.0730    12.9140 ha         1 5O3       0.131500
     39 H8           0.0610     4.4590    13.4120 ha         1 5O3       0.156000
     40 H9          -3.7740     4.3970    11.4700 ha         1 5O3       0.156000
     41 H10         -3.4790     2.0100    10.9770 ha         1 5O3       0.131500
     42 H11         -0.8950    -0.6540     8.3890 ha         1 5O3       0.140000
     43 H12         -2.1160    -0.1040    11.8370 hn         1 5O3       0.451800
     44 H13         -2.5900     0.0340     2.0730 hn         1 5O3       0.428300
     45 H14         -2.5950     0.0040     0.3400 hn         1 5O3       0.428300
     46 H15         -1.6430    -0.2870     3.6550 hn         1 5O3       0.312500
     47 H16         -1.5630    -0.1840     6.0050 hn         1 5O3       0.317500
@<TRIPOS>BOND
     1    13    14 ar
     2    13    12 ar
     3    14    15 ar
     4    22    12 1
     5    22    26 1
     6    12    18 ar
     7    30    16 1
     8    28    26 2
     9    15    16 1
    10    15    17 ar
    11    26    27 2
    12    26    11 1
    13    16    31 1
    14    18    17 ar
    15    10    11 ar
    16    10     9 ar
    17    11    19 ar
    18     9     8 ar
    19    19     7 ar
    20     8     7 ar
    21     7    29 1
    22    24     6 2
    23    29     6 1
    24     6    25 1
    25    25     5 1
    26     4     5 ar
    27     4     3 ar
    28     5    21 ar
    29     3     2 ar
    30    21    23 1
    31    21     1 ar
    32     2     1 ar
    33     2    20 1
    34     1    32 1
    35     3    33 1
    36     4    34 1
    37     8    35 1
    38     9    36 1
    39    10    37 1
    40    13    38 1
    41    14    39 1
    42    17    40 1
    43    18    41 1
    44    19    42 1
    45    22    43 1
    46    23    44 1
    47    23    45 1
    48    25    46 1
    49    29    47 1
@<TRIPOS>SUBSTRUCTURE
     1 5O3         1 TEMP              0 ****  ****    0 ROOT
