@<TRIPOS>MOLECULE
5O3
   47    49     1     0     0
SMALL
bcc


@<TRIPOS>ATOM
      1 C1           0.0000     0.0000     0.0000 ca         1 5O3      -0.172000
      2 C2           1.3830     0.0000     0.0000 ca         1 5O3       0.000400
      3 C3           2.0790     0.0000     1.1960 ca         1 5O3      -0.135000
      4 C4           1.3960     0.0000     2.3970 ca         1 5O3      -0.065000
      5 C5           0.0090     0.0010     2.4070 ca         1 5O3      -0.142400
      6 C6          -0.0730     0.4230     4.7490 c          1 5O3       0.554100
      7 C7          -0.1170     0.8640     7.0880 ca         1 5O3      -0.120400
      8 C8           0.6460     2.0220     7.0000 ca         1 5O3      -0.050000
      9 C9           1.2200     2.5550     8.1370 ca         1 5O3      -0.110000
     10 C10          1.0400     1.9370     9.3610 ca         1 5O3       0.010000
     11 C11          0.2820     0.7830     9.4510 ca         1 5O3      -0.130500
     12 C12         -1.5480     1.8950    11.9150 ca         1 5O3      -0.002400
     13 C13         -0.5540     2.5880    12.6000 ca         1 5O3      -0.172000
     14 C14         -0.7130     3.9200    12.8790 ca         1 5O3      -0.060500
     15 C15         -1.8750     4.5840    12.4740 ca         1 5O3      -0.105600
     16 C16         -2.0490     6.0170    12.7710 c          1 5O3       0.972200
     17 C17         -2.8720     3.8860    11.7850 ca         1 5O3      -0.060500
     18 C18         -2.7070     2.5520    11.5100 ca         1 5O3      -0.172000
     19 C19         -0.3010     0.2490     8.3180 ca         1 5O3      -0.031000
     20 Cl           2.2490    -0.0000    -1.5050 cl         1 5O3      -0.050400
     21 C           -0.6920     0.0060     1.2010 ca         1 5O3       0.030600
     22 N3          -1.3830     0.5440    11.6300 nu         1 5O3      -0.377500
     23 N           -2.0920     0.0070     1.2050 nv         1 5O3      -0.460200
     24 O            1.0450     0.8970     4.6920 o          1 5O3      -0.683100
     25 N1          -0.6850     0.0010     3.6250 ns         1 5O3      -0.044100
     26 S            0.0540    -0.0010    11.0120 sy         1 5O3       1.031200
     27 O1          -0.1230    -1.3850    10.7430 o          1 5O3      -0.602300
     28 O2           1.0740     0.5010    11.8650 o          1 5O3      -0.602300
     29 N2          -0.7020     0.3220     5.9370 ns         1 5O3      -0.043100
     30 O4          -1.1820     6.6240    13.3690 o          1 5O3      -0.883800
     31 O3          -3.1700     6.6550    12.3800 o          1 5O3      -0.883800
     32 H1          -0.5420     0.0360    -0.9370 ha         1 5O3       0.117000
     33 H2           3.1630    -0.0010     1.1900 ha         1 5O3       0.116000
     34 H3           1.9430    -0.0460     3.3310 ha         1 5O3       0.166000
     35 H4           0.7900     2.5060     6.0420 ha         1 5O3       0.136000
     36 H5           1.8150     3.4580     8.0700 ha         1 5O3       0.112000
     37 H6           1.4940     2.3560    10.2510 ha         1 5O3       0.135000
     38 H7           0.3460     2.0730    12.9140 ha         1 5O3       0.116500
     39 H8           0.0610     4.4590    13.4120 ha         1 5O3       0.126500
     40 H9          -3.7740     4.3970    11.4700 ha         1 5O3       0.126500
     41 H10         -3.4790     2.0100    10.9770 ha         1 5O3       0.116500
     42 H11         -0.8950    -0.6540     8.3890 ha         1 5O3       0.115000
     43 H12         -2.1160    -0.1040    11.8370 hn         1 5O3       0.332800
     44 H13         -2.5900     0.0340     2.0730 hn         1 5O3       0.265300
     45 H14         -2.5950     0.0040     0.3400 hn         1 5O3       0.265300
     46 H15         -1.6430    -0.2870     3.6550 hn         1 5O3       0.156500
     47 H16         -1.5630    -0.1840     6.0050 hn         1 5O3       0.158500
@<TRIPOS>BOND
     1     1     2 ar  
     2     1    21 ar  
     3     1    32 1   
     4     2     3 ar  
     5     2    20 1   
     6     3     4 ar  
     7     3    33 1   
     8     4     5 ar  
     9     4    34 1   
    10     5    21 ar  
    11     5    25 1   
    12     6    24 2   
    13     6    25 1   
    14     6    29 1   
    15     7     8 ar  
    16     7    19 ar  
    17     7    29 1   
    18     8     9 ar  
    19     8    35 1   
    20     9    10 ar  
    21     9    36 1   
    22    10    11 ar  
    23    10    37 1   
    24    11    19 ar  
    25    11    26 1   
    26    12    13 ar  
    27    12    18 ar  
    28    12    22 1   
    29    13    14 ar  
    30    13    38 1   
    31    14    15 ar  
    32    14    39 1   
    33    15    16 1   
    34    15    17 ar  
    35    16    30 1   
    36    16    31 1   
    37    17    18 ar  
    38    17    40 1   
    39    18    41 1   
    40    19    42 1   
    41    21    23 1   
    42    22    26 1   
    43    22    43 1   
    44    23    44 1   
    45    23    45 1   
    46    25    46 1   
    47    26    27 2   
    48    26    28 2   
    49    29    47 1   
@<TRIPOS>SUBSTRUCTURE
     1 5O3         1 TEMP              0 ****  ****    0 ROOT
