@<TRIPOS>MOLECULE
molecule
   21    22     1     0     0
SMALL
bcc


@<TRIPOS>ATOM
      1 Cl1          0.0000     0.0000     0.0000 cl         1 5O5      -0.073400
      2 C02          1.7360     0.0000     0.0000 ca         1 5O5       0.070400
      3 C03          2.4280     0.0000     1.2000 ca         1 5O5      -0.002600
      4 Cl2          1.5590     0.0060     2.7030 cl         1 5O5      -0.079400
      5 C05          3.8120    -0.0070     1.2020 ca         1 5O5      -0.075000
      6 C06          4.5050    -0.0130     0.0070 ca         1 5O5      -0.147000
      7 C07          3.8140    -0.0120    -1.1960 ca         1 5O5       0.150100
      8 O08          4.4960    -0.0190    -2.3720 os         1 5O5      -0.348900
      9 C09          3.7190    -0.0180    -3.5720 c3         1 5O5       0.122100
     10 C10          4.6390    -0.0250    -4.7650 cc         1 5O5       0.343800
     11 N11          5.9840    -0.0320    -4.7430 na         1 5O5      -0.105400
     12 N12          6.3850    -0.0370    -5.9700 nc         1 5O5      -0.219800
     13 N13          5.3560    -0.0350    -6.7420 nd         1 5O5      -0.026000
     14 N14          4.2840    -0.0320    -6.0270 nd         1 5O5      -0.376000
     15 C15          2.4270    -0.0060    -1.1970 ca         1 5O5      -0.207000
     16 H1           4.3520    -0.0070     2.1410 ha         1 5O5       0.158000
     17 H2           5.5880    -0.0180     0.0100 ha         1 5O5       0.153000
     18 H3           3.0890    -0.8990    -3.5950 h1         1 5O5       0.075700
     19 H4           3.0990     0.8700    -3.6000 h1         1 5O5       0.075700
     20 H5           6.5650    -0.0320    -3.9280 hn         1 5O5       0.353700
     21 H6           1.8860    -0.0050    -2.1350 ha         1 5O5       0.156000
@<TRIPOS>BOND
     1     5     6 ar  
     2     5     3 ar  
     3     6     7 ar  
     4     4     3 1   
     5     3     2 ar  
     6     7     8 1   
     7     7    15 ar  
     8     8     9 1   
     9     2    15 ar  
    10     2     1 1   
    11     9    10 1   
    12    10    11 1   
    13    10    14 2   
    14    11    12 1   
    15    14    13 1   
    16    12    13 2   
    17     5    16 1   
    18     6    17 1   
    19     9    18 1   
    20     9    19 1   
    21    11    20 1   
    22    15    21 1   
@<TRIPOS>SUBSTRUCTURE
     1 5O5         1 TEMP              0 ****  ****    0 ROOT
