@<TRIPOS>MOLECULE
molecule
   25    25     1     0     0
SMALL
bcc


@<TRIPOS>ATOM
      1 C01          0.0000     0.0000     0.0000 c3         1 5O6       0.136700
      2 O02          1.4300     0.0000     0.0000 os         1 5O6      -0.342900
      3 C03          2.0450     0.0000     1.2100 ca         1 5O6       0.131100
      4 C04          3.4330     0.0010     1.2810 ca         1 5O6      -0.202500
      5 C05          4.0620     0.0020     2.5050 ca         1 5O6      -0.100000
      6 C06          3.3010     0.0020     3.6800 ca         1 5O6      -0.042800
      7 C07          3.9670     0.0030     4.9910 ce         1 5O6      -0.128400
      8 C08          3.8180    -1.1800     5.9130 c3         1 5O6      -0.011900
      9 C09          4.7140     1.0640     5.3680 cf         1 5O6      -0.159200
     10 C10          5.5020     0.9940     6.5440 c          1 5O6       0.864800
     11 O11          6.1970     2.0750     6.9560 o          1 5O6      -0.847300
     12 O12          5.5510    -0.0400     7.1820 o          1 5O6      -0.847300
     13 C13          1.9030     0.0020     3.6030 ca         1 5O6      -0.100000
     14 C14          1.2840     0.0060     2.3740 ca         1 5O6      -0.202500
     15 H1          -0.3610    -0.0100    -1.0210 h1         1 5O6       0.032367
     16 H2          -0.3610     0.8900     0.5020 h1         1 5O6       0.032367
     17 H3          -0.3610    -0.8790     0.5190 h1         1 5O6       0.032367
     18 H4           4.0210    -0.0010     0.3710 ha         1 5O6       0.132000
     19 H5           5.1420    -0.0700     2.5590 ha         1 5O6       0.139000
     20 H6           4.7770    -1.6690     6.0300 hc         1 5O6       0.036367
     21 H7           3.4640    -0.8420     6.8790 hc         1 5O6       0.036367
     22 H8           3.1050    -1.8780     5.4910 hc         1 5O6       0.036367
     23 H9           4.8190     1.9120     4.7020 ha         1 5O6       0.107000
     24 H11          1.3100     0.0640     4.5080 ha         1 5O6       0.139000
     25 H12          0.2360     0.0490     2.6440 ha         1 5O6       0.132000
@<TRIPOS>BOND
     1    14    13 ar
     2    14     3 ar
     3     2     3 1
     4     2     1 1
     5    13     6 ar
     6     3     4 ar
     7     6     7 1
     8     6     5 ar
     9     4     5 ar
    10     7     8 1
    11     7     9 2
    12     9    10 1
    13    12    10 1
    14    10    11 1
    15     1    15 1
    16     1    16 1
    17     1    17 1
    18     4    18 1
    19     5    19 1
    20     8    20 1
    21     8    21 1
    22     8    22 1
    23     9    23 1
    24    13    24 1
    25    14    25 1
@<TRIPOS>SUBSTRUCTURE
     1 5O6         1 TEMP              0 ****  ****    0 ROOT
