@<TRIPOS>MOLECULE
molecule
   45    48     1     0     0
SMALL
bcc


@<TRIPOS>ATOM
      1 C10          0.0000     0.0000     0.0000 c3         1 5O7       0.063600
      2 C13         10.1790    -4.7830     0.9620 ca         1 5O7      -0.240000
      3 C14         10.7560    -5.0530    -0.2700 ca         1 5O7       0.157100
      4 C17          9.1420    -3.5700    -3.7230 c3         1 5O7       0.129700
      5 C18         12.4020    -6.3180     0.8880 c3         1 5O7       0.129700
      6 O1          11.8750    -5.8220    -0.3430 os         1 5O7      -0.329900
      7 C12          9.0380    -4.0080     1.0390 ca         1 5O7      -0.068000
      8 C15         10.1910    -4.5390    -1.4290 ca         1 5O7      -0.235000
      9 C16          9.0510    -3.7570    -1.3550 ca         1 5O7       0.140100
     10 O            8.4960    -3.2530    -2.4890 os         1 5O7      -0.333900
     11 C11          8.4670    -3.4970    -0.1170 ca         1 5O7       0.095600
     12 C            7.0210    -2.0140     1.1220 ca         1 5O7       0.931900
     13 N1           7.9210    -2.0130     2.1040 nb         1 5O7      -0.771000
     14 C3           7.7070    -1.3690     3.2330 ca         1 5O7       0.513200
     15 C2           6.4940    -0.6740     3.3850 ca         1 5O7      -0.313600
     16 C4           6.1630     0.0390     4.5480 ca         1 5O7      -0.216300
     17 C5           4.9600     0.6800     4.6040 ca         1 5O7       0.397200
     18 N2           4.1000     0.6480     3.5990 nb         1 5O7      -0.678000
     19 C6           4.3410    -0.0020     2.4730 ca         1 5O7       0.484500
     20 C1           5.5620    -0.6980     2.3160 ca         1 5O7       0.375300
     21 N            5.8700    -1.3730     1.2080 nb         1 5O7      -0.778000
     22 C7           3.3390     0.0000     1.3840 cc         1 5O7      -0.371800
     23 C9           3.6110     0.0000     0.0000 cc         1 5O7       0.380200
     24 N4           2.4710     0.0000    -0.6370 nd         1 5O7      -0.524800
     25 N3           1.4340    -0.0000     0.3030 na         1 5O7       0.064400
     26 C8           1.9800    -0.0060     1.5340 cd         1 5O7      -0.069300
     27 H1          -0.1420     0.0110    -1.0740 h1         1 5O7       0.054700
     28 H2          -0.4570    -0.8900     0.4160 h1         1 5O7       0.054700
     29 H3          -0.4610     0.8790     0.4340 h1         1 5O7       0.054700
     30 H4          10.6240    -5.1820     1.8660 ha         1 5O7       0.137000
     31 H5           8.6120    -3.0960    -4.5400 h1         1 5O7       0.044033
     32 H6           9.1390    -4.6440    -3.8670 h1         1 5O7       0.044033
     33 H7          10.1640    -3.2110    -3.6990 h1         1 5O7       0.044033
     34 H8          13.2910    -6.9040     0.6900 h1         1 5O7       0.041367
     35 H9          11.6610    -6.9410     1.3740 h1         1 5O7       0.041367
     36 H10         12.6550    -5.4870     1.5350 h1         1 5O7       0.041367
     37 H11          8.5860    -3.8020     2.0020 ha         1 5O7       0.173000
     38 H12         10.6420    -4.7500    -2.3910 ha         1 5O7       0.151000
     39 H13          6.6720    -2.6790    -0.8110 hn         1 5O7       0.478800
     40 H14          8.4460    -1.3760     4.0250 h4         1 5O7       0.035100
     41 H15          6.8500     0.0800     5.3840 ha         1 5O7       0.138000
     42 H16          4.7000     1.2310     5.5000 h4         1 5O7       0.022100
     43 H17          4.5940     0.0000    -0.4550 h4         1 5O7       0.064100
     44 H18          1.4430    -0.1220     2.4680 h4         1 5O7       0.180000
     45 N5           7.3080    -2.7100    -0.0390 nu         1 5O7      -0.733300
@<TRIPOS>BOND
     1    17    18 ar  
     2    17    16 ar  
     3    23    24 2   
     4    23    22 1   
     5    18    19 ar  
     6    24    25 1   
     7    16    15 ar  
     8    19    22 1   
     9    19    20 ar  
    10    22    26 2   
    11    25    26 1   
    12    25     1 1   
    13    15    20 ar  
    14    15    14 ar  
    15    20    21 ar  
    16    14    13 ar  
    17    21    12 ar  
    18    13    12 ar  
    19    12    45 1   
    20     7     2 ar  
    21     7    11 ar  
    22     2     3 ar  
    23    45    11 1   
    24    11     9 ar  
    25     5     6 1   
    26     3     6 1   
    27     3     8 ar  
    28     9     8 ar  
    29     9    10 1   
    30    10     4 1   
    31     1    27 1   
    32     1    28 1   
    33     1    29 1   
    34     2    30 1   
    35     4    31 1   
    36     4    32 1   
    37     4    33 1   
    38     5    34 1   
    39     5    35 1   
    40     5    36 1   
    41     7    37 1   
    42     8    38 1   
    43    45    39 1   
    44    14    40 1   
    45    16    41 1   
    46    17    42 1   
    47    23    43 1   
    48    26    44 1   
@<TRIPOS>SUBSTRUCTURE
     1 5O7         1 TEMP              0 ****  ****    0 ROOT
