@<TRIPOS>MOLECULE
molecule
   55    58     1     0     0
SMALL
bcc


@<TRIPOS>ATOM
      1 C4           0.0000     0.0000     0.0000 cc         1 5O8       0.198100
      2 C5           1.4000     0.0000     0.0000 cd         1 5O8      -0.186900
      3 C6           2.0760     0.0000     1.2430 c          1 5O8       0.735100
      4 C8           0.7580     0.0030    -2.0690 cc         1 5O8       0.053400
      5 N1           1.3390    -0.0020     2.3760 ns         1 5O8      -0.447400
      6 N3          -0.6630    -0.0030     1.1620 nc         1 5O8      -0.579100
      7 CAM          3.5800    -2.1640    -2.9390 ca         1 5O8      -0.103000
      8 CAK          4.0530    -3.4620    -2.9750 ca         1 5O8      -0.115000
      9 CAJ          4.6600    -4.0080    -1.8590 ca         1 5O8      -0.070000
     10 CAL          4.7920    -3.2550    -0.7060 ca         1 5O8      -0.115000
     11 CAN          4.3180    -1.9570    -0.6710 ca         1 5O8      -0.103000
     12 CAW          3.7120    -1.4110    -1.7860 ca         1 5O8      -0.184300
     13 N7           1.8020     0.0030    -1.2940 na         1 5O8       0.082900
     14 O6           3.2950    -0.0000     1.2900 o          1 5O8      -0.505500
     15 C2          -0.0230    -0.0030     2.3100 cd         1 5O8       0.558800
     16 N9          -0.3780     0.0070    -1.3150 na         1 5O8      -0.007100
     17 CBD         -1.7530     0.0080    -1.8200 c3         1 5O8       0.186800
     18 OAU         -1.7990    -0.5340    -3.1580 os         1 5O8      -0.413600
     19 CBB         -2.2730     1.4570    -1.9640 c3         1 5O8       0.027100
     20 OAF         -3.0710     1.8170    -0.8350 oh         1 5O8      -0.513800
     21 CBA         -3.1320     1.4220    -3.2480 c3         1 5O8       0.056100
     22 OAE         -4.4890     1.7590    -2.9500 oh         1 5O8      -0.545800
     23 CBC         -3.0330    -0.0440    -3.7270 c3         1 5O8       0.208100
     24 CAP         -2.9750    -0.1020    -5.2540 c3         1 5O8       0.097800
     25 NAS         -2.9250    -1.5000    -5.6880 n7         1 5O8      -0.884100
     26 SBH         -3.2280    -1.8880    -7.2690 s6         1 5O8       1.291900
     27 OAC         -3.1180    -3.3040    -7.3100 o          1 5O8      -0.542800
     28 OAD         -4.4600    -1.2410    -7.5570 o          1 5O8      -0.542800
     29 CBG         -1.8720    -1.1160    -8.1930 c3         1 5O8       0.516700
     30 FAH         -0.6520    -1.6380    -7.7530 f          1 5O8      -0.205300
     31 FAI         -2.0270    -1.3820    -9.5580 f          1 5O8      -0.205300
     32 FAG         -1.8920     0.2670    -7.9820 f          1 5O8      -0.205300
     33 H1           0.7870     0.0000    -3.1520 h5         1 5O8       0.285000
     34 H2           1.7950    -0.0030     3.2670 hn         1 5O8       0.382500
     35 H3          -0.4540    -0.7720     4.0480 hn         1 5O8       0.499800
     36 H4          -1.7190    -0.0970     3.2650 hn         1 5O8       0.499800
     37 H7           5.0310    -5.0250    -1.8870 ha         1 5O8       0.164000
     38 H8           5.2670    -3.6820     0.1690 ha         1 5O8       0.160500
     39 H9           4.4210    -1.3670     0.2320 ha         1 5O8       0.139000
     40 H12         -2.4030    -0.5590    -1.1640 h2         1 5O8       0.111700
     41 H13         -1.4440     2.1440    -2.0850 h1         1 5O8       0.088700
     42 H14         -3.1940     0.9190    -0.5760 ho         1 5O8       0.390000
     43 H15         -2.3630     2.1590    -3.4450 h1         1 5O8       0.113700
     44 H16         -4.7080     2.5770    -3.3660 ho         1 5O8       0.444000
     45 H17         -3.8890    -0.4340    -3.1900 h1         1 5O8       0.085700
     46 H18         -3.4130     0.6630    -5.8840 h1         1 5O8       0.135700
     47 H19         -3.8350    -0.4810    -4.7150 h1         1 5O8       0.135700
     48 H20         -2.6820    -2.2180    -5.0340 hn         1 5O8       0.471800
     49 N2          -0.7450    -0.0050     3.4760 nz         1 5O8      -0.745600
     50 CAQ          3.1950     0.0040    -1.7480 c3         1 5O8       0.066600
     51 H5           3.1050    -1.7360    -3.8140 ha         1 5O8       0.139000
     52 H10          3.2510     0.4360    -2.7400 h1         1 5O8       0.116700
     53 H11          3.7970     0.5900    -1.0640 h1         1 5O8       0.116700
     54 H23         -0.6010     0.8600     3.9590 hn         1 5O8       0.499800
     55 H6           3.9500    -4.0510    -3.8780 ha         1 5O8       0.160500
@<TRIPOS>BOND
     1    50    12 1
     2    50    13 1
     3     7    12 ar
     4     7     8 ar
     5    12    11 ar
     6     8     9 ar
     7    11    10 ar
     8     9    10 ar
     9    14     3 2
    10    13     4 2
    11    13     2 1
    12     4    16 1
    13     3     2 1
    14     3     5 1
    15     2     1 2
    16    16     1 1
    17    16    17 1
    18     1     6 1
    19     5    15 1
    20    27    26 2
    21    17    18 1
    22    17    19 1
    23    28    26 2
    24     6    15 2
    25    15    49 1
    26    18    23 1
    27    32    29 1
    28    26    29 1
    29    26    25 1
    30    19    20 1
    31    19    21 1
    32    29    30 1
    33    29    31 1
    34    23    24 1
    35    23    21 1
    36    25    24 1
    37    21    22 1
    38     4    33 1
    39     5    34 1
    40    49    35 1
    41    49    36 1
    42     7    51 1
    43     8    55 1
    44     9    37 1
    45    10    38 1
    46    11    39 1
    47    50    52 1
    48    50    53 1
    49    17    40 1
    50    19    41 1
    51    20    42 1
    52    21    43 1
    53    22    44 1
    54    23    45 1
    55    24    46 1
    56    24    47 1
    57    25    48 1
    58    54    49 1
@<TRIPOS>SUBSTRUCTURE
     1 5O8         1 TEMP              0 ****  ****    0 ROOT
