@<TRIPOS>MOLECULE
molecule
   42    44     1     0     0
SMALL
bcc


@<TRIPOS>ATOM
      1 C2           0.0000     0.0000     0.0000 c3         1 5OA       0.181800
      2 C3           1.5310     0.0000     0.0000 c3         1 5OA       0.160000
      3 C11         -6.7980     0.4680     1.1950 ca         1 5OA      -0.114000
      4 C12         -6.0310     1.4460     0.5640 cp         1 5OA       0.001000
      5 C13         -4.5510     1.3760     0.6120 cp         1 5OA      -0.347600
      6 C14         -3.8650     0.3330    -0.0080 ca         1 5OA       0.502200
      7 C16         -1.8670     1.2530     0.6870 ca         1 5OA       0.888900
      8 C18         -3.8010     2.3620     1.2780 ca         1 5OA       0.763200
      9 C22          2.0410    -1.2490    -0.7210 c3         1 5OA      -0.089600
     10 N1          -0.4870     1.1810     0.7270 nh         1 5OA      -0.685300
     11 N4           2.0190     0.0000     1.3860 n7         1 5OA      -0.821200
     12 C5           1.5310     1.1810     2.1130 c3         1 5OA       0.160000
     13 C6           0.0010     1.1810     2.1130 c3         1 5OA       0.181800
     14 C7          -6.6610     2.4910    -0.1110 ca         1 5OA       0.045400
     15 C8          -8.0410     2.5510    -0.1500 ca         1 5OA       0.030400
     16 C9          -8.7970     1.5760     0.4780 ca         1 5OA      -0.115000
     17 C10         -8.1760     0.5370     1.1490 ca         1 5OA      -0.119000
     18 N15         -2.5430     0.3070     0.0510 nb         1 5OA      -0.789000
     19 N17         -2.4770     2.2610     1.2950 nb         1 5OA      -0.776000
     20 N19         -4.4330     3.4220     1.9050 nv         1 5OA      -1.078500
     21 Cl1         -8.8290     3.8520    -0.9890 cl         1 5OA      -0.087400
     22 Cl2         -5.7130     3.7140    -0.8980 cl         1 5OA      -0.082400
     23 H1          -0.3600    -0.8970     0.4880 h1         1 5OA       0.061200
     24 H2          -0.3600     0.0320    -1.0210 h1         1 5OA       0.061200
     25 H3           1.8900     0.8870    -0.5070 h1         1 5OA       0.035200
     26 H5          -4.4070    -0.4460    -0.5310 h4         1 5OA       0.033100
     27 H6           1.4330    -1.4310    -1.6000 hc         1 5OA       0.041867
     28 H7           1.9780    -2.1010    -0.0550 hc         1 5OA       0.041867
     29 H8           3.0710    -1.0980    -1.0190 hc         1 5OA       0.041867
     30 H12          3.0200    -0.0030     1.3880 hn         1 5OA       0.356800
     31 H14          1.8900     2.0780     1.6240 h1         1 5OA       0.035200
     32 H15         -0.3590     2.0670     2.6220 h1         1 5OA       0.061200
     33 H16         -0.3590     0.2950     2.6220 h1         1 5OA       0.061200
     34 H17         -9.8790     1.6260     0.4440 ha         1 5OA       0.150000
     35 H18         -8.7720    -0.2230     1.6380 ha         1 5OA       0.141000
     36 H19         -4.5160     4.3020     1.4370 hn         1 5OA       0.444800
     37 H20         -4.7600     3.3220     2.8450 hn         1 5OA       0.444800
     38 C23          2.0420     1.1390     3.5540 c3         1 5OA      -0.089600
     39 H4          -6.3140    -0.3460     1.7200 ha         1 5OA       0.144000
     40 H9           1.6530     1.9900     4.1000 hc         1 5OA       0.041867
     41 H10          1.7090     0.2240     4.0290 hc         1 5OA       0.041867
     42 H11          3.1240     1.1730     3.5550 hc         1 5OA       0.041867
@<TRIPOS>BOND
     1     9     2 1   
     2     2     1 1   
     3     2    11 1   
     4     1    10 1   
     5    11    12 1   
     6    10    13 1   
     7    10     7 1   
     8    18     7 ar  
     9    18     6 ar  
    10    13    12 1   
    11    12    38 1   
    12     7    19 ar  
    13     6     5 ar  
    14    19     8 ar  
    15     3    17 ar  
    16     3     4 ar  
    17     5     8 ar  
    18     5     4 1   
    19    17    16 ar  
    20     8    20 1   
    21     4    14 ar  
    22    16    15 ar  
    23    14    15 ar  
    24    14    22 1   
    25    15    21 1   
    26     1    23 1   
    27     1    24 1   
    28     2    25 1   
    29     3    39 1   
    30     6    26 1   
    31     9    27 1   
    32     9    28 1   
    33     9    29 1   
    34    38    40 1   
    35    38    41 1   
    36    38    42 1   
    37    11    30 1   
    38    12    31 1   
    39    13    32 1   
    40    13    33 1   
    41    16    34 1   
    42    17    35 1   
    43    20    36 1   
    44    20    37 1   
@<TRIPOS>SUBSTRUCTURE
     1 5OA         1 TEMP              0 ****  ****    0 ROOT
