@<TRIPOS>MOLECULE
5OA
   42    44     1     0     0
SMALL
bcc


@<TRIPOS>ATOM
      1 C2           0.0000     0.0000     0.0000 c3         1 5OA       0.143300
      2 C3           1.5310     0.0000     0.0000 c3         1 5OA       0.116000
      3 C11         -6.7980     0.4680     1.1950 ca         1 5OA      -0.087000
      4 C12         -6.0310     1.4460     0.5640 cp         1 5OA       0.006000
      5 C13         -4.5510     1.3760     0.6120 cp         1 5OA      -0.335600
      6 C14         -3.8650     0.3330    -0.0080 ca         1 5OA       0.490200
      7 C16         -1.8670     1.2530     0.6870 ca         1 5OA       0.717900
      8 C18         -3.8010     2.3620     1.2780 ca         1 5OA       0.579200
      9 C22          2.0410    -1.2490    -0.7210 c3         1 5OA       0.006400
     10 N1          -0.4870     1.1810     0.7270 nh         1 5OA      -0.448300
     11 N4           2.0190     0.0000     1.3860 n7         1 5OA      -0.585200
     12 C5           1.5310     1.1810     2.1130 c3         1 5OA       0.116000
     13 C6           0.0010     1.1810     2.1130 c3         1 5OA       0.143300
     14 C7          -6.6610     2.4910    -0.1110 ca         1 5OA      -0.030600
     15 C8          -8.0410     2.5510    -0.1500 ca         1 5OA      -0.038600
     16 C9          -8.7970     1.5760     0.4780 ca         1 5OA      -0.091000
     17 C10         -8.1760     0.5370     1.1490 ca         1 5OA      -0.088000
     18 N15         -2.5430     0.3070     0.0510 nb         1 5OA      -0.678000
     19 N17         -2.4770     2.2610     1.2950 nb         1 5OA      -0.655000
     20 N19         -4.4330     3.4220     1.9050 nv         1 5OA      -0.661500
     21 Cl1         -8.8290     3.8520    -0.9890 cl         1 5OA      -0.003400
     22 Cl2         -5.7130     3.7140    -0.8980 cl         1 5OA       0.005600
     23 H1          -0.3600    -0.8970     0.4880 h1         1 5OA       0.033700
     24 H2          -0.3600     0.0320    -1.0210 h1         1 5OA       0.033700
     25 H3           1.8900     0.8870    -0.5070 h1         1 5OA       0.014700
     26 H5          -4.4070    -0.4460    -0.5310 h4         1 5OA      -0.011900
     27 H6           1.4330    -1.4310    -1.6000 hc         1 5OA       0.007867
     28 H7           1.9780    -2.1010    -0.0550 hc         1 5OA       0.007867
     29 H8           3.0710    -1.0980    -1.0190 hc         1 5OA       0.007867
     30 H12          3.0200    -0.0030     1.3880 hn         1 5OA       0.258800
     31 H14          1.8900     2.0780     1.6240 h1         1 5OA       0.014700
     32 H15         -0.3590     2.0670     2.6220 h1         1 5OA       0.033700
     33 H16         -0.3590     0.2950     2.6220 h1         1 5OA       0.033700
     34 H17         -9.8790     1.6260     0.4440 ha         1 5OA       0.118000
     35 H18         -8.7720    -0.2230     1.6380 ha         1 5OA       0.109000
     36 H19         -4.5160     4.3020     1.4370 hn         1 5OA       0.286300
     37 H20         -4.7600     3.3220     2.8450 hn         1 5OA       0.286300
     38 C23          2.0420     1.1390     3.5540 c3         1 5OA       0.006400
     39 H4          -6.3140    -0.3460     1.7200 ha         1 5OA       0.113000
     40 H9           1.6530     1.9900     4.1000 hc         1 5OA       0.007867
     41 H10          1.7090     0.2240     4.0290 hc         1 5OA       0.007867
     42 H11          3.1240     1.1730     3.5550 hc         1 5OA       0.007867
@<TRIPOS>BOND
     1     1     2 1   
     2     1    10 1   
     3     1    23 1   
     4     1    24 1   
     5     2     9 1   
     6     2    11 1   
     7     2    25 1   
     8     3     4 ar  
     9     3    17 ar  
    10     3    39 1   
    11     4     5 1   
    12     4    14 ar  
    13     5     6 ar  
    14     5     8 ar  
    15     6    18 ar  
    16     6    26 1   
    17     7    10 1   
    18     7    18 ar  
    19     7    19 ar  
    20     8    19 ar  
    21     8    20 1   
    22     9    27 1   
    23     9    28 1   
    24     9    29 1   
    25    10    13 1   
    26    11    12 1   
    27    11    30 1   
    28    12    13 1   
    29    12    31 1   
    30    12    38 1   
    31    13    32 1   
    32    13    33 1   
    33    14    15 ar  
    34    14    22 1   
    35    15    16 ar  
    36    15    21 1   
    37    16    17 ar  
    38    16    34 1   
    39    17    35 1   
    40    20    36 1   
    41    20    37 1   
    42    38    40 1   
    43    38    41 1   
    44    38    42 1   
@<TRIPOS>SUBSTRUCTURE
     1 5OA         1 TEMP              0 ****  ****    0 ROOT
