@<TRIPOS>MOLECULE
5OB
   19    20     1     0     0
SMALL
bcc


@<TRIPOS>ATOM
      1 N3         -0.0490    0.0000   -0.0300 na        1 5OB     -0.295300
      2 N1          1.9340   -0.0040    1.1330 nc        1 5OB     -0.558100
      3 C2          1.3610   -0.0020   -0.0770 cd        1 5OB      0.413700
      4 C7A         0.8630   -0.0040    2.0540 ca        1 5OB      0.031400
      5 C3A        -0.3960   -0.0010    1.3240 ca        1 5OB     -0.040200
      6 C4         -1.6280   -0.0000    1.9800 ca        1 5OB     -0.174000
      7 C5         -1.5900   -0.0020    3.3800 ca        1 5OB      0.143100
      8 C6         -0.3790   -0.0050    4.1050 ca        1 5OB     -0.220000
      9 C7          0.8450   -0.0060    3.4530 ca        1 5OB     -0.033000
     10 O10        -2.8400   -0.0010    3.9750 os        1 5OB     -0.329900
     11 C11        -2.8640   -0.0020    5.3970 c3        1 5OB      0.114700
     12 H31N       -0.6700    0.0020   -0.7920 hn        1 5OB      0.306700
     13 H21         1.8990   -0.0010   -1.0330 h5        1 5OB      0.067800
     14 H41        -2.5850    0.0020    1.4440 ha        1 5OB      0.153000
     15 H61        -0.3970   -0.0060    5.2040 ha        1 5OB      0.139000
     16 H71         1.7860   -0.0080    4.0210 ha        1 5OB      0.149000
     17 H111       -2.3720    0.9150    5.8020 h1        1 5OB      0.044367
     18 H112       -2.3750   -0.9210    5.8010 h1        1 5OB      0.044367
     19 H113       -3.9580   -0.0010    5.6360 h1        1 5OB      0.044367
@<TRIPOS>BOND
     1    1    3 1   
     2    1    5 1   
     3    1   12 1   
     4    2    3 2   
     5    2    4 1   
     6    3   13 1   
     7    4    5 ar  
     8    4    9 ar  
     9    5    6 ar  
    10    6    7 ar  
    11    6   14 1   
    12    7    8 ar  
    13    7   10 1   
    14    8    9 ar  
    15    8   15 1   
    16    9   16 1   
    17   10   11 1   
    18   11   17 1   
    19   11   18 1   
    20   11   19 1   
@<TRIPOS>SUBSTRUCTURE
     1 5OB         1 TEMP              0 ****  ****    0 ROOT
