@<TRIPOS>MOLECULE
molecule
   19    20     1     0     0
SMALL
bcc


@<TRIPOS>ATOM
      1 N3           0.0000     0.0000     0.0000 na         1 5OB      -0.270300
      2 N1           1.8070     0.0000     1.2220 nc         1 5OB      -0.596100
      3 C2           1.3610     0.0000     0.0000 cd         1 5OB       0.419700
      4 C7A          0.7620    -0.0010     2.0900 ca         1 5OB       0.058400
      5 C3A         -0.4110    -0.0010     1.3180 ca         1 5OB      -0.060200
      6 C4          -1.6500    -0.0070     1.9430 ca         1 5OB      -0.171000
      7 C5          -1.7190    -0.0030     3.3240 ca         1 5OB       0.133100
      8 C6          -0.5550    -0.0030     4.0860 ca         1 5OB      -0.231000
      9 C7           0.6700    -0.0010     3.4840 ca         1 5OB      -0.030000
     10 O10         -2.9310    -0.0030     3.9410 os         1 5OB      -0.297900
     11 C11         -2.6800    -0.0040     5.3470 c3         1 5OB       0.106700
     12 H31N        -0.5930    -0.0000    -0.8060 hn         1 5OB       0.303700
     13 H21          1.9820     0.0000    -0.8880 h5         1 5OB       0.073800
     14 H41         -2.5580    -0.0070     1.3520 ha         1 5OB       0.141000
     15 H61         -0.6220     0.0000     5.1680 ha         1 5OB       0.145000
     16 H71          1.5710    -0.0010     4.0860 ha         1 5OB       0.144000
     17 H111        -2.1150     0.8810     5.6140 h1         1 5OB       0.044367
     18 H112        -2.1120    -0.8880     5.6120 h1         1 5OB       0.044367
     19 H113        -3.6220    -0.0060     5.8820 h1         1 5OB       0.044367
@<TRIPOS>BOND
     1     1     3 1
     2     1     5 1
     3     1    12 1
     4     2     3 2
     5     2     4 1
     6     3    13 1
     7     4     5 ar
     8     4     9 ar
     9     5     6 ar
    10     6     7 ar
    11     6    14 1
    12     7     8 ar
    13     7    10 1
    14     8     9 ar
    15     8    15 1
    16     9    16 1
    17    10    11 1
    18    11    17 1
    19    11    18 1
    20    11    19 1
@<TRIPOS>SUBSTRUCTURE
     1 5OB         1 TEMP              0 ****  ****    0 ROOT
