@<TRIPOS>MOLECULE
molecule
   43    45     1     0     0
SMALL
bcc


@<TRIPOS>ATOM
      1 C1           0.0000     0.0000     0.0000 cp         1 5OD       0.354500
      2 C3           1.9890     0.0000     1.1420 ca         1 5OD       0.294900
      3 C11          3.7890    -1.0220     4.8780 c3         1 5OD      -0.098400
      4 C12          2.8770    -1.0170     6.1080 c3         1 5OD       0.101200
      5 C13          1.8860     0.1440     5.9930 c3         1 5OD      -0.098400
      6 C14          1.0840    -0.0020     4.6970 c3         1 5OD       0.158800
      7 C15         -0.4470     0.9590    -2.2570 ca         1 5OD       0.059400
      8 C16         -1.1440     0.9590    -3.4520 ca         1 5OD       0.026400
      9 C17         -2.1340     0.0190    -3.6770 ca         1 5OD      -0.094000
     10 C18         -2.4340    -0.9240    -2.7110 ca         1 5OD      -0.123000
     11 C19         -1.7450    -0.9340    -1.5150 ca         1 5OD      -0.091000
     12 C23          3.7240    -0.8450     7.3710 c3         1 5OD      -0.112100
     13 N2           1.3280     0.0000     0.0000 nb         1 5OD      -0.597000
     14 C4           1.3000    -0.0000     2.3510 ca         1 5OD       0.465900
     15 N5          -0.0280    -0.0060     2.3610 nb         1 5OD      -0.739000
     16 C6          -0.6980    -0.0010     1.2160 ca         1 5OD       0.603900
     17 N7          -2.0860     0.0040     1.2220 nv         1 5OD      -1.071500
     18 C8          -0.7420     0.0060    -1.2820 cp         1 5OD      -0.136500
     19 N9           2.0010    -0.0010     3.5500 nh         1 5OD      -0.688300
     20 C10          2.9340    -1.1350     3.6140 c3         1 5OD       0.158800
     21 N22          2.1410    -2.2850     6.1790 nz         1 5OD      -0.810600
     22 H1           3.0730     0.0020     1.1390 h4         1 5OD       0.040100
     23 H2           4.3570    -0.1010     4.8480 hc         1 5OD       0.092450
     24 H3           4.4630    -1.8680     4.9340 hc         1 5OD       0.092450
     25 H4           2.4290     1.0810     5.9770 hc         1 5OD       0.092450
     26 H5           1.2100     0.1260     6.8390 hc         1 5OD       0.092450
     27 H6           0.5340    -0.9350     4.7180 h1         1 5OD       0.058200
     28 H7           0.3940     0.8280     4.6070 h1         1 5OD       0.058200
     29 H8          -2.6780     0.0230    -4.6140 ha         1 5OD       0.159000
     30 H9          -3.2120    -1.6560    -2.8930 ha         1 5OD       0.148000
     31 H10         -1.9810    -1.6740    -0.7600 ha         1 5OD       0.136000
     32 H11          4.2640     0.0930     7.3190 hc         1 5OD       0.075033
     33 H12          3.0780    -0.8410     8.2410 hc         1 5OD       0.075033
     34 H13          4.4290    -1.6630     7.4480 hc         1 5OD       0.075033
     35 H14         -2.5880    -0.8470     1.3840 hn         1 5OD       0.447800
     36 H15         -2.5840     0.8670     1.1220 hn         1 5OD       0.447800
     37 H16          3.5770    -1.1220     2.7420 h1         1 5OD       0.058200
     38 H17          2.3720    -2.0610     3.6410 h1         1 5OD       0.058200
     39 H18          1.5300    -2.2720     6.9720 hn         1 5OD       0.453467
     40 H19          2.7890    -3.0420     6.2710 hn         1 5OD       0.453467
     41 Cl1          0.7970     2.1370    -1.9760 cl         1 5OD      -0.065400
     42 H223         1.6020    -2.4060     5.3450 hn         1 5OD       0.453467
     43 Cl2         -0.7750     2.1390    -4.6710 cl         1 5OD      -0.066400
@<TRIPOS>BOND
     1    12     4 1   
     2     6     5 1   
     3     6    19 1   
     4     5     4 1   
     5    19    20 1   
     6    19    14 1   
     7     4     3 1   
     8     4    21 1   
     9    20     3 1   
    10     2    14 ar  
    11     2    13 ar  
    12    14    15 ar  
    13    13     1 ar  
    14    15    16 ar  
    15    11    10 ar  
    16    11    18 ar  
    17     1    16 ar  
    18     1    18 1   
    19    10     9 ar  
    20    16    17 1   
    21    18     7 ar  
    22     9     8 ar  
    23     7     8 ar  
    24     7    41 1   
    25     8    43 1   
    26     2    22 1   
    27     3    23 1   
    28     3    24 1   
    29     5    25 1   
    30     5    26 1   
    31     6    27 1   
    32     6    28 1   
    33     9    29 1   
    34    10    30 1   
    35    11    31 1   
    36    12    32 1   
    37    12    33 1   
    38    12    34 1   
    39    17    35 1   
    40    17    36 1   
    41    20    37 1   
    42    20    38 1   
    43    21    39 1   
    44    21    40 1   
    45    42    21 1   
@<TRIPOS>SUBSTRUCTURE
     1 5OD         1 TEMP              0 ****  ****    0 ROOT
