@<TRIPOS>MOLECULE
5OD
   43    45     1     0     0
SMALL
bcc


@<TRIPOS>ATOM
      1 C1           0.0000     0.0000     0.0000 cp         1 5OD       0.323500
      2 C3           1.9890     0.0000     1.1420 ca         1 5OD       0.279900
      3 C11          3.7890    -1.0220     4.8780 c3         1 5OD      -0.033400
      4 C12          2.8770    -1.0170     6.1080 c3         1 5OD      -0.096800
      5 C13          1.8860     0.1440     5.9930 c3         1 5OD      -0.033400
      6 C14          1.0840    -0.0020     4.6970 c3         1 5OD       0.131800
      7 C15         -0.4470     0.9590    -2.2570 ca         1 5OD      -0.013600
      8 C16         -1.1440     0.9590    -3.4520 ca         1 5OD      -0.046600
      9 C17         -2.1340     0.0190    -3.6770 ca         1 5OD      -0.068000
     10 C18         -2.4340    -0.9240    -2.7110 ca         1 5OD      -0.091000
     11 C19         -1.7450    -0.9340    -1.5150 ca         1 5OD      -0.074000
     12 C23          3.7240    -0.8450     7.3710 c3         1 5OD       0.000900
     13 N2           1.3280     0.0000     0.0000 nb         1 5OD      -0.491000
     14 C4           1.3000    -0.0000     2.3510 ca         1 5OD       0.334900
     15 N5          -0.0280    -0.0060     2.3610 nb         1 5OD      -0.619000
     16 C6          -0.6980    -0.0010     1.2160 ca         1 5OD       0.430900
     17 N7          -2.0860     0.0040     1.2220 nv         1 5OD      -0.643500
     18 C8          -0.7420     0.0060    -1.2820 cp         1 5OD      -0.150500
     19 N9           2.0010    -0.0010     3.5500 nh         1 5OD      -0.450300
     20 C10          2.9340    -1.1350     3.6140 c3         1 5OD       0.131800
     21 N22          2.1410    -2.2850     6.1790 nz         1 5OD       0.044400
     22 H1           3.0730     0.0020     1.1390 h4         1 5OD      -0.000900
     23 H2           4.3570    -0.1010     4.8480 hc         1 5OD       0.059200
     24 H3           4.4630    -1.8680     4.9340 hc         1 5OD       0.059200
     25 H4           2.4290     1.0810     5.9770 hc         1 5OD       0.059200
     26 H5           1.2100     0.1260     6.8390 hc         1 5OD       0.059200
     27 H6           0.5340    -0.9350     4.7180 h1         1 5OD       0.031200
     28 H7           0.3940     0.8280     4.6070 h1         1 5OD       0.031200
     29 H8          -2.6780     0.0230    -4.6140 ha         1 5OD       0.123000
     30 H9          -3.2120    -1.6560    -2.8930 ha         1 5OD       0.114000
     31 H10         -1.9810    -1.6740    -0.7600 ha         1 5OD       0.106000
     32 H11          4.2640     0.0930     7.3190 hc         1 5OD       0.038033
     33 H12          3.0780    -0.8410     8.2410 hc         1 5OD       0.038033
     34 H13          4.4290    -1.6630     7.4480 hc         1 5OD       0.038033
     35 H14         -2.5880    -0.8470     1.3840 hn         1 5OD       0.289300
     36 H15         -2.5840     0.8670     1.1220 hn         1 5OD       0.289300
     37 H16          3.5770    -1.1220     2.7420 h1         1 5OD       0.031200
     38 H17          2.3720    -2.0610     3.6410 h1         1 5OD       0.031200
     39 H18          1.5300    -2.2720     6.9720 hn         1 5OD       0.231800
     40 H19          2.7890    -3.0420     6.2710 hn         1 5OD       0.231800
     41 Cl1          0.7970     2.1370    -1.9760 cl         1 5OD       0.018600
     42 H223         1.6020    -2.4060     5.3450 hn         1 5OD       0.231800
     43 Cl2         -0.7750     2.1390    -4.6710 cl         1 5OD       0.020600
@<TRIPOS>BOND
     1     1    13 ar  
     2     1    16 ar  
     3     1    18 1   
     4     2    13 ar  
     5     2    14 ar  
     6     2    22 1   
     7     3     4 1   
     8     3    20 1   
     9     3    23 1   
    10     3    24 1   
    11     4     5 1   
    12     4    12 1   
    13     4    21 1   
    14     5     6 1   
    15     5    25 1   
    16     5    26 1   
    17     6    19 1   
    18     6    27 1   
    19     6    28 1   
    20     7     8 ar  
    21     7    18 ar  
    22     7    41 1   
    23     8     9 ar  
    24     8    43 1   
    25     9    10 ar  
    26     9    29 1   
    27    10    11 ar  
    28    10    30 1   
    29    11    18 ar  
    30    11    31 1   
    31    12    32 1   
    32    12    33 1   
    33    12    34 1   
    34    14    15 ar  
    35    14    19 1   
    36    15    16 ar  
    37    16    17 1   
    38    17    35 1   
    39    17    36 1   
    40    19    20 1   
    41    20    37 1   
    42    20    38 1   
    43    21    39 1   
    44    21    40 1   
    45    21    42 1   
@<TRIPOS>SUBSTRUCTURE
     1 5OD         1 TEMP              0 ****  ****    0 ROOT
