@<TRIPOS>MOLECULE
molecule
   51    55     1     0     0
SMALL
bcc


@<TRIPOS>ATOM
      1 C21          0.0000     0.0000     0.0000 c3         1 5OE       0.063600
      2 N6           1.4640     0.0000     0.0000 na         1 5OE       0.064400
      3 C19          2.2530     0.0000     1.0920 cc         1 5OE      -0.071300
      4 N7           2.2850    -0.0080    -1.1340 nd         1 5OE      -0.525800
      5 C20          3.5320    -0.0120    -0.7470 cc         1 5OE       0.380200
      6 C18          3.5520    -0.0020     0.6640 cc         1 5OE      -0.370800
      7 C17          4.7580    -0.0010     1.5230 ca         1 5OE       0.484500
      8 N5           4.7570     0.6600     2.6680 nb         1 5OE      -0.679000
      9 C16          5.8060     0.6930     3.4740 ca         1 5OE       0.397200
     10 C15          6.9690     0.0440     3.1760 ca         1 5OE      -0.216300
     11 C1           7.0500    -0.6800     1.9750 ca         1 5OE      -0.312600
     12 C            5.9140    -0.7100     1.1260 ca         1 5OE       0.375300
     13 N1           5.9820    -1.4020    -0.0130 nb         1 5OE      -0.778000
     14 C3           7.0880    -2.0470    -0.3310 ca         1 5OE       0.932900
     15 N            8.1710    -2.0440     0.4440 nb         1 5OE      -0.768000
     16 C2           8.2030    -1.3800     1.5800 ca         1 5OE       0.514200
     17 N2           7.1250    -2.7550    -1.5200 nu         1 5OE      -0.739300
     18 C4           8.2380    -3.5490    -1.8280 ca         1 5OE       0.122600
     19 C9           8.6580    -3.6740    -3.1510 ca         1 5OE       0.118100
     20 O            7.9900    -3.0240    -4.1420 os         1 5OE      -0.333900
     21 C10          8.4780    -3.1970    -5.4740 c3         1 5OE       0.130700
     22 C8           9.7570    -4.4580    -3.4550 ca         1 5OE      -0.205000
     23 C7          10.4400    -5.1210    -2.4380 ca         1 5OE       0.036000
     24 C6          10.0150    -4.9930    -1.1170 ca         1 5OE      -0.156000
     25 C5           8.9210    -4.2060    -0.8160 ca         1 5OE      -0.087000
     26 C11         11.6190    -5.9630    -2.7610 cd         1 5OE      -0.262300
     27 C13         12.1590    -6.1820    -4.0430 cd         1 5OE       0.346200
     28 N4          13.1890    -6.9770    -3.9200 nc         1 5OE      -0.511800
     29 N3          13.3470    -7.2940    -2.5650 na         1 5OE       0.067400
     30 C14         14.3850    -8.1590    -2.0000 c3         1 5OE       0.063600
     31 C12         12.3800    -6.6600    -1.8690 cc         1 5OE      -0.097300
     32 H1          -0.3610    -0.8950     0.4920 h1         1 5OE       0.054700
     33 H2          -0.3610     0.0220    -1.0210 h1         1 5OE       0.054700
     34 H3          -0.3610     0.8730     0.5290 h1         1 5OE       0.054700
     35 H4           1.9200     0.0070     2.1230 h4         1 5OE       0.180000
     36 H5           4.4000    -0.0170    -1.3960 h4         1 5OE       0.064100
     37 H6           5.7400     1.2530     4.3990 h4         1 5OE       0.022100
     38 H7           7.8140     0.0870     3.8520 ha         1 5OE       0.137000
     39 H8           9.0900    -1.3860     2.2020 h4         1 5OE       0.035100
     40 H9           6.3390    -2.7340    -2.1400 hn         1 5OE       0.477800
     41 H10          8.4430    -4.2470    -5.7380 h1         1 5OE       0.042367
     42 H11          9.5010    -2.8440    -5.5330 h1         1 5OE       0.042367
     43 H12          7.8610    -2.6310    -6.1610 h1         1 5OE       0.042367
     44 H13         10.0860    -4.5560    -4.4820 ha         1 5OE       0.138000
     45 H14         10.5470    -5.5070    -0.3260 ha         1 5OE       0.128000
     46 H15          8.5920    -4.1080     0.2120 ha         1 5OE       0.157000
     47 H16         11.7850    -5.7650    -4.9700 h4         1 5OE       0.048100
     48 H17         14.9880    -7.5910    -1.3020 h1         1 5OE       0.055700
     49 H18         13.9200    -8.9900    -1.4830 h1         1 5OE       0.055700
     50 H19         15.0140    -8.5360    -2.7970 h1         1 5OE       0.055700
     51 H20         12.2310    -6.7030    -0.7970 h4         1 5OE       0.173000
@<TRIPOS>BOND
     1     5     4 2   
     2     5     6 1   
     3     9     8 ar  
     4     9    10 ar  
     5     4     2 1   
     6     8     7 ar  
     7     6     7 1   
     8     6     3 2   
     9    10    11 ar  
    10     7    12 ar  
    11     2     3 1   
    12     2     1 1   
    13    11    12 ar  
    14    11    16 ar  
    15    12    13 ar  
    16    13    14 ar  
    17    16    15 ar  
    18    14    15 ar  
    19    14    17 1   
    20    25    24 ar  
    21    25    18 ar  
    22    24    23 ar  
    23    17    18 1   
    24    18    19 ar  
    25    31    26 2   
    26    31    29 1   
    27    23    26 1   
    28    23    22 ar  
    29    30    29 1   
    30    26    27 1   
    31    29    28 1   
    32    19    22 ar  
    33    19    20 1   
    34    20    21 1   
    35    27    28 2   
    36     1    32 1   
    37     1    33 1   
    38     1    34 1   
    39     3    35 1   
    40     5    36 1   
    41     9    37 1   
    42    10    38 1   
    43    16    39 1   
    44    17    40 1   
    45    21    41 1   
    46    21    42 1   
    47    21    43 1   
    48    22    44 1   
    49    24    45 1   
    50    25    46 1   
    51    27    47 1   
    52    30    48 1   
    53    30    49 1   
    54    30    50 1   
    55    31    51 1   
@<TRIPOS>SUBSTRUCTURE
     1 5OE         1 TEMP              0 ****  ****    0 ROOT
