@<TRIPOS>MOLECULE
molecule
   22    23     1     0     0
SMALL
bcc


@<TRIPOS>ATOM
      1 C10          0.0000     0.0000     0.0000 ca         1 5OF      -0.147600
      2 C13          1.3980    -0.0110    -2.3960 ca         1 5OF      -0.118000
      3 C15          1.4150     0.0000     0.0000 ca         1 5OF      -0.116900
      4 O01          3.2800    -0.0000     3.6540 o          1 5OF      -0.828800
      5 C02          4.0880     0.0000     2.7550 c          1 5OF       0.885600
      6 O03          5.4010     0.0020     3.0330 o          1 5OF      -0.828800
      7 C05          2.1140     0.0000     1.2850 cc         1 5OF       0.380900
      8 N06          1.4360    -0.0000     2.3940 nd         1 5OF      -0.328300
      9 N07          0.0420    -0.0000     2.4250 ns         1 5OF      -0.316900
     10 C08         -0.6940     0.0000     1.2940 c          1 5OF       0.673100
     11 O09         -1.9100     0.0000     1.3450 o          1 5OF      -0.684500
     12 C11         -0.6930    -0.0060    -1.2090 ca         1 5OF      -0.073000
     13 C12          0.0090    -0.0110    -2.3940 ca         1 5OF      -0.158000
     14 C14          2.1040     0.0000    -1.2130 ca         1 5OF      -0.121000
     15 H1           1.9320    -0.0150    -3.3390 ha         1 5OF       0.119000
     16 H3           3.9950    -0.8830     0.8200 hc         1 5OF       0.050700
     17 H4           3.9930     0.8860     0.8220 hc         1 5OF       0.050700
     18 H5          -0.4250    -0.0000     3.3100 hn         1 5OF       0.360500
     19 H6          -1.7760    -0.0060    -1.2160 ha         1 5OF       0.146000
     20 H7          -0.5290    -0.0190    -3.3350 ha         1 5OF       0.119000
     21 H8           3.1870     0.0000    -1.2250 ha         1 5OF       0.146000
     22 C04          3.6200     0.0010     1.3230 c3         1 5OF      -0.211700
@<TRIPOS>BOND
     1    11    10 2
     2     4     5 1
     3    10     9 1
     4    10     1 1
     5     9     8 1
     6    12     1 ar
     7    12    13 ar
     8     1     3 ar
     9     8     7 2
    10    13     2 ar
    11     3     7 1
    12     3    14 ar
    13     7    22 1
    14     5    22 1
    15     5     6 1
    16     2    14 ar
    17     2    15 1
    18    22    16 1
    19    22    17 1
    20     9    18 1
    21    12    19 1
    22    13    20 1
    23    14    21 1
@<TRIPOS>SUBSTRUCTURE
     1 5OF         1 TEMP              0 ****  ****    0 ROOT
