@<TRIPOS>MOLECULE
5OF
   22    23     1     0     0
SMALL
bcc


@<TRIPOS>ATOM
      1 C10          0.0000     0.0000     0.0000 ca         1 5OF      -0.158600
      2 C13          1.3980    -0.0110    -2.3960 ca         1 5OF      -0.091000
      3 C15          1.4150     0.0000     0.0000 ca         1 5OF      -0.113900
      4 O01          3.2800    -0.0000     3.6540 o          1 5OF      -0.882300
      5 C02          4.0880     0.0000     2.7550 c          1 5OF       0.969600
      6 O03          5.4010     0.0020     3.0330 o          1 5OF      -0.882300
      7 C05          2.1140     0.0000     1.2850 cc         1 5OF       0.388900
      8 N06          1.4360    -0.0000     2.3940 nd         1 5OF      -0.418300
      9 N07          0.0420    -0.0000     2.4250 ns         1 5OF       0.087100
     10 C08         -0.6940     0.0000     1.2940 c          1 5OF       0.591100
     11 O09         -1.9100     0.0000     1.3450 o          1 5OF      -0.727500
     12 C11         -0.6930    -0.0060    -1.2090 ca         1 5OF      -0.039000
     13 C12          0.0090    -0.0110    -2.3940 ca         1 5OF      -0.138000
     14 C14          2.1040     0.0000    -1.2130 ca         1 5OF      -0.096000
     15 H1           1.9320    -0.0150    -3.3390 ha         1 5OF       0.093000
     16 H3           3.9950    -0.8830     0.8200 hc         1 5OF       0.021200
     17 H4           3.9930     0.8860     0.8220 hc         1 5OF       0.021200
     18 H5          -0.4250    -0.0000     3.3100 hn         1 5OF       0.201500
     19 H6          -1.7760    -0.0060    -1.2160 ha         1 5OF       0.118000
     20 H7          -0.5290    -0.0190    -3.3350 ha         1 5OF       0.094000
     21 H8           3.1870     0.0000    -1.2250 ha         1 5OF       0.123000
     22 C04          3.6200     0.0010     1.3230 c3         1 5OF      -0.162700
@<TRIPOS>BOND
     1     1     3 ar  
     2     1    10 1   
     3     1    12 ar  
     4     2    13 ar  
     5     2    14 ar  
     6     2    15 1   
     7     3     7 1   
     8     3    14 ar  
     9     4     5 1   
    10     5     6 1   
    11     5    22 1   
    12     7     8 2   
    13     7    22 1   
    14     8     9 1   
    15     9    10 1   
    16     9    18 1   
    17    10    11 2   
    18    12    13 ar  
    19    12    19 1   
    20    13    20 1   
    21    14    21 1   
    22    16    22 1   
    23    17    22 1   
@<TRIPOS>SUBSTRUCTURE
     1 5OF         1 TEMP              0 ****  ****    0 ROOT
