@<TRIPOS>MOLECULE
molecule
   36    37     1     0     0
SMALL
bcc


@<TRIPOS>ATOM
      1 O3           0.0000     0.0000     0.0000 o          1 5OG      -0.580100
      2 C12          1.2170     0.0000     0.0000 c          1 5OG       0.679300
      3 N2           1.8910     0.0000     1.1670 ns         1 5OG      -0.469400
      4 O4           1.1830    -0.0010     2.3930 oh         1 5OG      -0.360100
      5 C11          1.9490    -0.0040    -1.2680 ce         1 5OG      -0.253200
      6 C10          1.2760    -0.0090    -2.4360 cf         1 5OG      -0.012200
      7 C9           2.0110    -0.0130    -3.7110 ca         1 5OG      -0.103800
      8 C8           1.3160    -0.0200    -4.9240 ca         1 5OG       0.003000
      9 C13          3.4100    -0.0080    -3.7150 ca         1 5OG      -0.061000
     10 C14          4.0920    -0.0120    -4.9130 ca         1 5OG      -0.154000
     11 C15          3.3960    -0.0220    -6.1090 ca         1 5OG      -0.017000
     12 C7           2.0130    -0.0230    -6.1140 ca         1 5OG      -0.312500
     13 S            1.1380    -0.0290    -7.6440 sy         1 5OG       1.423200
     14 O1           1.9760    -0.6920    -8.5810 o          1 5OG      -0.630800
     15 O2          -0.1850    -0.4550    -7.3480 o          1 5OG      -0.630800
     16 N1           1.0230     1.5430    -8.1480 nu         1 5OG      -0.782500
     17 C1           0.3050     2.4700    -7.3870 ca         1 5OG       0.111600
     18 C6          -1.0840     2.4470    -7.3910 ca         1 5OG      -0.119500
     19 C5          -1.7900     3.3610    -6.6340 ca         1 5OG      -0.125000
     20 C4          -1.1150     4.2980    -5.8730 ca         1 5OG      -0.119000
     21 C3           0.2680     4.3240    -5.8670 ca         1 5OG      -0.125000
     22 C2           0.9790     3.4120    -6.6220 ca         1 5OG      -0.119500
     23 H1           2.8920     0.0110     1.1670 hn         1 5OG       0.318500
     24 H2           1.7950    -0.0330     3.1090 ho         1 5OG       0.398000
     25 H3           3.0320    -0.0030    -1.2680 ha         1 5OG       0.125000
     26 H4           0.1920    -0.0100    -2.4360 ha         1 5OG       0.167000
     27 H5           0.2320    -0.0210    -4.9280 ha         1 5OG       0.163000
     28 H6           3.9560    -0.0000    -2.7800 ha         1 5OG       0.135000
     29 H7           5.1750    -0.0090    -4.9180 ha         1 5OG       0.139000
     30 H8           3.9380    -0.0250    -7.0480 ha         1 5OG       0.150000
     31 H9           1.4350     1.8210    -9.0170 hn         1 5OG       0.464800
     32 H10         -1.6130     1.7130    -7.9880 ha         1 5OG       0.144500
     33 H11         -2.8730     3.3440    -6.6360 ha         1 5OG       0.136500
     34 H12         -1.6710     5.0140    -5.2800 ha         1 5OG       0.134000
     35 H13          0.7930     5.0590    -5.2700 ha         1 5OG       0.136500
     36 H14          2.0620     3.4330    -6.6170 ha         1 5OG       0.144500
@<TRIPOS>BOND
     1     1     2 2   
     2     4     3 1   
     3     2     3 1   
     4     2     5 1   
     5     5     6 2   
     6     6     7 1   
     7    19    20 ar  
     8    19    18 ar  
     9    20    21 ar  
    10    18    17 ar  
    11     7     8 ar  
    12     7     9 ar  
    13     8    12 ar  
    14    21    22 ar  
    15     9    10 ar  
    16    15    13 2   
    17    17    22 ar  
    18    17    16 1   
    19    12    13 1   
    20    12    11 ar  
    21    10    11 ar  
    22    16    13 1   
    23    13    14 2   
    24     3    23 1   
    25     4    24 1   
    26     5    25 1   
    27     6    26 1   
    28     8    27 1   
    29     9    28 1   
    30    10    29 1   
    31    11    30 1   
    32    16    31 1   
    33    18    32 1   
    34    19    33 1   
    35    20    34 1   
    36    21    35 1   
    37    22    36 1   
@<TRIPOS>SUBSTRUCTURE
     1 5OG         1 TEMP              0 ****  ****    0 ROOT
