@<TRIPOS>MOLECULE
5OG
   36    39     1     0     0
SMALL
bcc


@<TRIPOS>ATOM
      1 O3           0.0000     0.0000     0.0000 o          1 5OG      -0.403000
      2 C12          1.2170     0.0000     0.0000 c3         1 5OG       0.353000
      3 N2           1.8910     0.0000     1.1670 n7         1 5OG       0.082000
      4 O4           1.1830    -0.0010     2.3930 oh         1 5OG      -0.238000
      5 C11          1.9490    -0.0040    -1.2680 c2         1 5OG      -0.175000
      6 C10          1.2760    -0.0090    -2.4360 c2         1 5OG       0.041000
      7 C9           2.0110    -0.0130    -3.7110 c3         1 5OG      -0.035000
      8 C8           1.3160    -0.0200    -4.9240 c2         1 5OG      -0.044000
      9 C13          3.4100    -0.0080    -3.7150 c2         1 5OG      -0.104000
     10 C14          4.0920    -0.0120    -4.9130 c2         1 5OG      -0.101000
     11 C15          3.3960    -0.0220    -6.1090 c2         1 5OG      -0.031000
     12 C7           2.0130    -0.0230    -6.1140 c2         1 5OG      -0.567000
     13 S            1.1380    -0.0290    -7.6440 s6         1 5OG       2.376000
     14 O1           1.9760    -0.6920    -8.5810 o          1 5OG      -0.862500
     15 O2          -0.1850    -0.4550    -7.3480 o          1 5OG      -0.862500
     16 N1           1.0230     1.5430    -8.1480 nu         1 5OG      -0.469000
     17 C1           0.3050     2.4700    -7.3870 ca         1 5OG      -0.042000
     18 C6          -1.0840     2.4470    -7.3910 ca         1 5OG      -0.100500
     19 C5          -1.7900     3.3610    -6.6340 ca         1 5OG      -0.095500
     20 C4          -1.1150     4.2980    -5.8730 ca         1 5OG      -0.098000
     21 C3           0.2680     4.3240    -5.8670 ca         1 5OG      -0.095500
     22 C2           0.9790     3.4120    -6.6220 ca         1 5OG      -0.100500
     23 H1           2.8910    -0.0210     1.1670 hn         1 5OG       0.077000
     24 H2           1.7900    -0.1100     3.1060 ho         1 5OG       0.195000
     25 H3           1.4820     0.8720    -0.8350 DU         1 5OG       0.028000
     26 H4           1.7420     0.8640    -2.8760 DU         1 5OG       0.086000
     27 H5           0.2320    -0.0210    -4.9280 ha         1 5OG       0.143000
     28 H6           3.9560    -0.0000    -2.7800 ha         1 5OG       0.119000
     29 H7           5.1750    -0.0090    -4.9180 ha         1 5OG       0.110000
     30 H8           3.9380    -0.0250    -7.0480 ha         1 5OG       0.122000
     31 H9           1.4350     1.8210    -9.0170 hn         1 5OG       0.144000
     32 H10         -1.6130     1.7130    -7.9880 ha         1 5OG       0.117000
     33 H11         -2.8730     3.3440    -6.6360 ha         1 5OG       0.104500
     34 H12         -1.6710     5.0140    -5.2800 ha         1 5OG       0.104000
     35 H13          0.7930     5.0590    -5.2700 ha         1 5OG       0.104500
     36 H14          2.0620     3.4330    -6.6170 ha         1 5OG       0.117000
@<TRIPOS>BOND
     1     1     2 1   
     2     2     3 1   
     3     2     5 1   
     4     2    25 1   
     5     3     4 1   
     6     3    23 1   
     7     4    24 1   
     8     5     6 1   
     9     5    25 1   
    10     6     7 1   
    11     6    26 1   
    12     7     8 1   
    13     7     9 1   
    14     7    26 1   
    15     8    12 1   
    16     8    27 1   
    17     9    10 1   
    18     9    28 1   
    19    10    11 1   
    20    10    29 1   
    21    11    12 1   
    22    11    30 1   
    23    12    13 1   
    24    13    14 1   
    25    13    15 1   
    26    13    16 1   
    27    16    17 1   
    28    16    31 1   
    29    17    18 1   
    30    17    22 1   
    31    18    19 1   
    32    18    32 1   
    33    19    20 1   
    34    19    33 1   
    35    20    21 1   
    36    20    34 1   
    37    21    22 1   
    38    21    35 1   
    39    22    36 1   
@<TRIPOS>SUBSTRUCTURE
     1 5OG         1 TEMP              0 ****  ****    0 ROOT
