@<TRIPOS>MOLECULE
5OJ
   41    42     1     0     0
SMALL
bcc


@<TRIPOS>ATOM
      1 O4           0.0000     0.0000     0.0000 o          1 5OJ      -0.617100
      2 C7           1.2120     0.0000     0.0000 c          1 5OJ       0.572100
      3 N2           1.8860     0.0000     1.1680 n          1 5OJ      -0.020000
      4 C14          3.3470    -0.1040     1.1700 c3         1 5OJ       0.021000
      5 C15          3.9590     1.2960     1.1120 c3         1 5OJ       0.199400
      6 O3           3.6290     2.0110     2.3050 oh         1 5OJ      -0.582800
      7 C8           1.1900     0.0990     2.3770 ca         1 5OJ      -0.065400
      8 C13          0.5190     1.2710     2.7000 ca         1 5OJ      -0.083000
      9 C12         -0.1670     1.3660     3.8940 ca         1 5OJ      -0.096000
     10 C11         -0.1860     0.2940     4.7700 ca         1 5OJ      -0.096000
     11 C10          0.4810    -0.8740     4.4510 ca         1 5OJ      -0.096000
     12 C9           1.1640    -0.9770     3.2550 ca         1 5OJ      -0.083000
     13 C6           1.9660    -0.0040    -1.3050 c3         1 5OJ      -0.053100
     14 C5           0.9870    -0.0090    -2.4510 ca         1 5OJ      -0.044300
     15 C4           0.5380     1.1880    -2.9790 ca         1 5OJ      -0.094500
     16 C3          -0.3580     1.1910    -4.0280 ca         1 5OJ      -0.056500
     17 C16          0.5450    -1.2110    -2.9730 ca         1 5OJ      -0.094500
     18 C17         -0.3510    -1.2230    -4.0230 ca         1 5OJ      -0.056500
     19 C2          -0.8120    -0.0180    -4.5560 ca         1 5OJ      -0.153600
     20 C1          -1.7710    -0.0240    -5.6810 c          1 5OJ       0.597700
     21 O1          -2.1680     1.0270    -6.1460 o          1 5OJ      -0.622100
     22 N1          -2.2090    -1.1930    -6.1890 ns         1 5OJ      -0.061400
     23 O2          -3.1290    -1.1980    -7.2650 oh         1 5OJ      -0.437100
     24 H1           3.6720    -0.6030     2.0750 h1         1 5OJ       0.035200
     25 H2           3.6690    -0.6750     0.3070 h1         1 5OJ       0.035200
     26 H3           5.0360     1.2170     1.0240 h1         1 5OJ      -0.006300
     27 H4           3.5650     1.8270     0.2530 h1         1 5OJ      -0.006300
     28 H5           4.2820     2.6720     2.4660 ho         1 5OJ       0.392000
     29 H6           0.5330     2.1100     2.0150 ha         1 5OJ       0.107000
     30 H7          -0.6910     2.2800     4.1470 ha         1 5OJ       0.102000
     31 H8          -0.7230     0.3720     5.7070 ha         1 5OJ       0.101000
     32 H9           0.4630    -1.7120     5.1370 ha         1 5OJ       0.102000
     33 H10          1.6860    -1.8930     3.0060 ha         1 5OJ       0.107000
     34 H11          2.5880     0.8810    -1.3660 hc         1 5OJ       0.034200
     35 H12          2.5900    -0.8880    -1.3600 hc         1 5OJ       0.034200
     36 H13          0.8920     2.1260    -2.5680 ha         1 5OJ       0.106000
     37 H14         -0.7100     2.1300    -4.4390 ha         1 5OJ       0.112000
     38 H15          0.9040    -2.1460    -2.5580 ha         1 5OJ       0.106000
     39 H16         -0.6980    -2.1650    -4.4300 ha         1 5OJ       0.112000
     40 H17         -1.8840    -2.0580    -5.8050 hn         1 5OJ       0.160500
     41 H18         -3.3320    -2.0880    -7.5020 ho         1 5OJ       0.390000
@<TRIPOS>BOND
     1     1     2 2   
     2     2     3 1   
     3     2    13 1   
     4     3     4 1   
     5     3     7 1   
     6     4     5 1   
     7     4    24 1   
     8     4    25 1   
     9     5     6 1   
    10     5    26 1   
    11     5    27 1   
    12     6    28 1   
    13     7     8 ar  
    14     7    12 ar  
    15     8     9 ar  
    16     8    29 1   
    17     9    10 ar  
    18     9    30 1   
    19    10    11 ar  
    20    10    31 1   
    21    11    12 ar  
    22    11    32 1   
    23    12    33 1   
    24    13    14 1   
    25    13    34 1   
    26    13    35 1   
    27    14    15 ar  
    28    14    17 ar  
    29    15    16 ar  
    30    15    36 1   
    31    16    19 ar  
    32    16    37 1   
    33    17    18 ar  
    34    17    38 1   
    35    18    19 ar  
    36    18    39 1   
    37    19    20 1   
    38    20    21 2   
    39    20    22 1   
    40    22    23 1   
    41    22    40 1   
    42    23    41 1   
@<TRIPOS>SUBSTRUCTURE
     1 5OJ         1 TEMP              0 ****  ****    0 ROOT
