@<TRIPOS>MOLECULE
molecule
   38    39     1     0     0
SMALL
bcc


@<TRIPOS>ATOM
      1 O01          0.0000     0.0000     0.0000 o          1 5OK      -0.633300
      2 S02          1.4210     0.0000     0.0000 sy         1 5OK       1.410200
      3 N03          1.8890     0.0000     1.5890 nu         1 5OK      -0.768500
      4 C04          3.2460    -0.0310     1.9170 ca         1 5OK       0.121600
      5 C05          3.7000    -0.8870     2.9070 ca         1 5OK      -0.118000
      6 C06          5.0590    -0.9140     3.2320 ca         1 5OK       0.022000
      7 C07          5.5370    -1.7970     4.2530 cg         1 5OK      -0.100000
      8 C08          5.9130    -2.5330     5.0880 cg         1 5OK      -0.145300
      9 C09          6.6110    -3.3480     6.2730 ce         1 5OK       0.046300
     10 C10          6.2380    -4.5480     6.4760 cf         1 5OK      -0.300200
     11 C11          6.8140    -5.4910     7.6230 c          1 5OK       0.790300
     12 N12          6.4630    -6.9080     7.7500 ns         1 5OK      -0.576400
     13 O13          7.3130    -7.7760     8.2450 oh         1 5OK      -0.385100
     14 O14          7.2200    -5.0340     8.4180 o          1 5OK      -0.412100
     15 C15          5.9510    -0.0760     2.5550 ca         1 5OK      -0.119000
     16 C16          5.4870     0.7730     1.5710 ca         1 5OK      -0.095000
     17 C17          4.1430     0.7940     1.2470 ca         1 5OK      -0.149000
     18 C18          1.9180    -1.5430    -0.6900 ca         1 5OK      -0.324500
     19 C19          3.1690    -1.6720    -1.2660 ca         1 5OK      -0.024500
     20 C20          3.5610    -2.8840    -1.8020 ca         1 5OK      -0.144500
     21 C21          2.7030    -3.9670    -1.7630 ca         1 5OK      -0.071000
     22 C22          1.4530    -3.8380    -1.1870 ca         1 5OK      -0.144500
     23 C23          1.0600    -2.6260    -0.6510 ca         1 5OK      -0.024500
     24 O24          2.1990     0.9990    -0.6470 o          1 5OK      -0.633300
     25 H1           1.1450     0.1970     2.2300 hn         1 5OK       0.466800
     26 H2           2.8920    -1.4960     3.2940 ha         1 5OK       0.144000
     27 H3           7.3660    -3.1080     7.0120 ha         1 5OK       0.163000
     28 H4           5.3640    -4.8350     5.9050 ha         1 5OK       0.130000
     29 H5           5.6970    -7.3230     7.2570 hn         1 5OK       0.288500
     30 H6           6.7660    -8.3990     8.6950 ho         1 5OK       0.399000
     31 H7           6.9060    -0.4410     2.9130 ha         1 5OK       0.153000
     32 H8           6.1920     1.3410     0.9770 ha         1 5OK       0.144000
     33 H9           3.9120     0.9700     0.2030 ha         1 5OK       0.179000
     34 H10          3.7190    -0.7860    -0.9730 ha         1 5OK       0.147000
     35 H11          4.5460    -3.0210    -2.2300 ha         1 5OK       0.138000
     36 H12          3.1720    -4.8340    -2.2120 ha         1 5OK       0.138000
     37 H13          0.8350    -4.6910    -0.9340 ha         1 5OK       0.138000
     38 H14          0.0430    -2.5890    -0.2790 ha         1 5OK       0.147000
@<TRIPOS>BOND
     1    20    21 ar
     2    20    19 ar
     3    21    22 ar
     4    19    18 ar
     5    22    23 ar
     6    18    23 ar
     7    18     2 1
     8    24     2 2
     9     1     2 2
    10     2     3 1
    11    14    11 2
    12     3     4 1
    13     9    10 2
    14     9     8 1
    15    11    10 1
    16    11    12 1
    17     5     4 ar
    18     5     6 ar
    19     8     7 3
    20     4    17 ar
    21     7     6 1
    22     6    15 ar
    23    13    12 1
    24    17    16 ar
    25    15    16 ar
    26     3    25 1
    27     5    26 1
    28     9    27 1
    29    10    28 1
    30    12    29 1
    31    13    30 1
    32    15    31 1
    33    16    32 1
    34    17    33 1
    35    19    34 1
    36    20    35 1
    37    21    36 1
    38    22    37 1
    39    23    38 1
@<TRIPOS>SUBSTRUCTURE
     1 5OK         1 TEMP              0 ****  ****    0 ROOT
