@<TRIPOS>MOLECULE
5OK
   38    39     1     0     0
SMALL
bcc


@<TRIPOS>ATOM
      1 O01          0.0000     0.0000     0.0000 o          1 5OK      -0.598300
      2 S02          1.4210     0.0000     0.0000 sy         1 5OK       1.025200
      3 N03          1.8890     0.0000     1.5890 nu         1 5OK      -0.373500
      4 C04          3.2460    -0.0310     1.9170 ca         1 5OK       0.045600
      5 C05          3.7000    -0.8870     2.9070 ca         1 5OK      -0.082000
      6 C06          5.0590    -0.9140     3.2320 ca         1 5OK       0.042000
      7 C07          5.5370    -1.7970     4.2530 cg         1 5OK      -0.108000
      8 C08          5.9440    -2.5270     5.0780 ch         1 5OK      -0.136300
      9 C09          6.2620    -3.1500     6.2070 cf         1 5OK       0.003300
     10 C10          6.6990    -4.4390     6.1720 ce         1 5OK      -0.221200
     11 C11          6.7990    -5.0390     4.5650 c          1 5OK       0.745300
     12 N12          6.7470    -6.4540     4.4820 ns         1 5OK      -0.233400
     13 O13          7.4930    -7.2370     5.3420 oh         1 5OK      -0.522100
     14 O14          6.9670    -4.4490     3.8060 o          1 5OK      -0.428100
     15 C15          5.9510    -0.0760     2.5550 ca         1 5OK      -0.099000
     16 C16          5.4870     0.7730     1.5710 ca         1 5OK      -0.084000
     17 C17          4.1430     0.7940     1.2470 ca         1 5OK      -0.174000
     18 C18          1.9180    -1.5430    -0.6900 ca         1 5OK      -0.132500
     19 C19          3.1690    -1.6720    -1.2660 ca         1 5OK       0.020000
     20 C20          3.5610    -2.8840    -1.8020 ca         1 5OK      -0.142500
     21 C21          2.7030    -3.9670    -1.7630 ca         1 5OK      -0.085000
     22 C22          1.4530    -3.8380    -1.1870 ca         1 5OK      -0.142500
     23 C23          1.0600    -2.6260    -0.6510 ca         1 5OK       0.020000
     24 O24          2.1990     0.9990    -0.6470 o          1 5OK      -0.598300
     25 H1           1.8990     0.9090     2.0090 hn         1 5OK       0.345800
     26 H2           3.1590    -1.6320     3.4780 ha         1 5OK       0.125000
     27 H3           6.0460    -2.7090     7.1720 ha         1 5OK       0.113000
     28 H4           6.7260    -5.0210     7.0860 ha         1 5OK       0.121000
     29 H5           6.4510    -6.9600     3.6710 hn         1 5OK       0.148500
     30 H6           7.4580    -8.1710     5.4640 ho         1 5OK       0.422000
     31 H7           6.8760     0.0390     3.1070 ha         1 5OK       0.115000
     32 H8           6.2050     1.4370     1.1040 ha         1 5OK       0.108000
     33 H9           4.0090     1.4180     0.3710 ha         1 5OK       0.169000
     34 H10          3.8750    -0.8540    -1.3480 ha         1 5OK       0.126000
     35 H11          4.4000    -3.2830    -2.3590 ha         1 5OK       0.115000
     36 H12          2.7470    -4.8690    -2.3610 ha         1 5OK       0.107000
     37 H13          0.9540    -4.7760    -0.9740 ha         1 5OK       0.115000
     38 H14         -0.0160    -2.5490    -0.5500 ha         1 5OK       0.126000
@<TRIPOS>BOND
     1     1     2 2   
     2     2     3 1   
     3     2    18 1   
     4     2    24 2   
     5     3     4 1   
     6     3    25 1   
     7     4     5 ar  
     8     4    17 ar  
     9     5     6 ar  
    10     5    26 1   
    11     6     7 1   
    12     6    15 ar  
    13     7     8 3   
    14     8     9 1   
    15     9    10 2   
    16     9    27 1   
    17    10    11 1   
    18    10    28 1   
    19    11    12 1   
    20    11    14 2   
    21    12    13 1   
    22    12    29 1   
    23    13    30 1   
    24    15    16 ar  
    25    15    31 1   
    26    16    17 ar  
    27    16    32 1   
    28    17    33 1   
    29    18    19 ar  
    30    18    23 ar  
    31    19    20 ar  
    32    19    34 1   
    33    20    21 ar  
    34    20    35 1   
    35    21    22 ar  
    36    21    36 1   
    37    22    23 ar  
    38    22    37 1   
    39    23    38 1   
@<TRIPOS>SUBSTRUCTURE
     1 5OK         1 TEMP              0 ****  ****    0 ROOT
