@<TRIPOS>MOLECULE
molecule
   37    38     1     0     0
SMALL
bcc


@<TRIPOS>ATOM
      1 O01          0.0000     0.0000     0.0000 o          1 5ON      -0.846800
      2 C02          1.3490     0.0000     0.0000 c          1 5ON       0.868800
      3 O03          1.9570     0.0000     1.0540 o          1 5ON      -0.846800
      4 C04          2.0800     0.0010    -1.2660 ce         1 5ON      -0.155200
      5 C05          3.4290     0.0010    -1.2660 cf         1 5ON      -0.165200
      6 C06          4.1650     0.0010    -2.5410 ca         1 5ON       0.010200
      7 C07          5.5630     0.0020    -2.5450 ca         1 5ON      -0.162000
      8 C08          6.2470     0.0020    -3.7480 ca         1 5ON       0.144100
      9 O09          7.6060     0.0030    -3.7560 os         1 5ON      -0.312900
     10 C10          8.2460     0.0020    -5.0330 c3         1 5ON       0.193700
     11 C11          9.7420     0.0020    -4.8450 ca         1 5ON      -0.100300
     12 C12         10.4270     1.2000    -4.7520 ca         1 5ON      -0.136000
     13 C13         11.7990     1.2010    -4.5800 ca         1 5ON      -0.145000
     14 C14         12.4850     0.0040    -4.4990 ca         1 5ON      -0.117000
     15 C15         11.8000    -1.1940    -4.5900 ca         1 5ON      -0.012300
     16 C16         12.5480    -2.4990    -4.5020 c3         1 5ON      -0.153100
     17 C17         12.6220    -2.9400    -3.0630 c          1 5ON       0.891600
     18 O18         13.2470    -4.0840    -2.7420 o          1 5ON      -0.842800
     19 O19         12.1170    -2.2640    -2.1970 o          1 5ON      -0.842800
     20 C20         10.4280    -1.1940    -4.7580 ca         1 5ON      -0.094000
     21 C21          5.5460     0.0010    -4.9460 ca         1 5ON      -0.255000
     22 C22          4.1630     0.0010    -4.9460 ca         1 5ON      -0.103000
     23 C23          3.4680    -0.0030    -3.7540 ca         1 5ON      -0.181000
     24 H2           1.5380     0.0010    -2.2040 ha         1 5ON       0.103000
     25 H3           3.9710     0.0000    -0.3280 ha         1 5ON       0.154000
     26 H4           6.1070     0.0900    -1.6120 ha         1 5ON       0.150000
     27 H5           7.9520    -0.8820    -5.5840 h1         1 5ON       0.026200
     28 H6           7.9520     0.8870    -5.5850 h1         1 5ON       0.026200
     29 H7           9.8880     2.1380    -4.8160 ha         1 5ON       0.111000
     30 H8          12.3360     2.1390    -4.5090 ha         1 5ON       0.105000
     31 H9          13.5600     0.0040    -4.3640 ha         1 5ON       0.122000
     32 H10         12.0310    -3.2520    -5.0840 hc         1 5ON       0.036200
     33 H11         13.5510    -2.3670    -4.8910 hc         1 5ON       0.036200
     34 H13          9.8910    -2.1330    -4.8290 ha         1 5ON       0.134000
     35 H14          6.0840     0.0030    -5.8860 ha         1 5ON       0.117000
     36 H15          3.6230    -0.0010    -5.8850 ha         1 5ON       0.106000
     37 H16          2.3850    -0.0030    -3.7570 ha         1 5ON       0.136000
@<TRIPOS>BOND
     1     3     2 1
     2     2     1 1
     3     2     4 1
     4     4     5 2
     5     5     6 1
     6     6     7 ar
     7     6    23 ar
     8     7     8 ar
     9    10    11 1
    10    10     9 1
    11    23    22 ar
    12    12    11 ar
    13    12    13 ar
    14    11    20 ar
    15     8     9 1
    16     8    21 ar
    17    19    17 1
    18    13    14 ar
    19    20    15 ar
    20    22    21 ar
    21    14    15 ar
    22    15    16 1
    23    17    16 1
    24    17    18 1
    25     4    24 1
    26     5    25 1
    27     7    26 1
    28    10    27 1
    29    10    28 1
    30    12    29 1
    31    13    30 1
    32    14    31 1
    33    16    32 1
    34    16    33 1
    35    20    34 1
    36    21    35 1
    37    22    36 1
    38    23    37 1
@<TRIPOS>SUBSTRUCTURE
     1 5ON         1 TEMP              0 ****  ****    0 ROOT
