@<TRIPOS>MOLECULE
molecule
   18    18     1     0     0
SMALL
bcc


@<TRIPOS>ATOM
      1 O01          0.0000     0.0000     0.0000 o          1 5OO      -0.832300
      2 C02          1.3500     0.0000     0.0000 c          1 5OO       0.862800
      3 C03          2.0800     0.0000     1.2660 ce         1 5OO      -0.122200
      4 C04          3.4300    -0.0000     1.2660 cf         1 5OO      -0.191200
      5 C05          4.1650     0.0000     2.5410 ca         1 5OO       0.006200
      6 C06          5.5660    -0.0000     2.5450 ca         1 5OO       0.018400
      7 Cl1          6.4410    -0.0030     1.0460 cl         1 5OO      -0.105400
      8 C08          6.2480     0.0010     3.7450 ca         1 5OO      -0.117000
      9 C09          5.5500     0.0020     4.9410 ca         1 5OO       0.001400
     10 Cl2          6.4160     0.0040     6.4460 cl         1 5OO      -0.141400
     11 C11          4.1640     0.0030     4.9440 ca         1 5OO      -0.119000
     12 C12          3.4680     0.0080     3.7540 ca         1 5OO      -0.129000
     13 O13          1.9580    -0.0020    -1.0530 o          1 5OO      -0.832300
     14 H2           1.5380     0.0000     2.2050 ha         1 5OO       0.102000
     15 H3           3.9720    -0.0000     0.3280 ha         1 5OO       0.168000
     16 H4           7.3310     0.0010     3.7510 ha         1 5OO       0.141000
     17 H5           3.6260     0.0060     5.8840 ha         1 5OO       0.133000
     18 H6           2.3850     0.0090     3.7590 ha         1 5OO       0.157000
@<TRIPOS>BOND
     1    10     9 1
     2    11     9 ar
     3    11    12 ar
     4     9     8 ar
     5    12     5 ar
     6     8     6 ar
     7     5     6 ar
     8     5     4 1
     9     6     7 1
    10     4     3 2
    11     3     2 1
    12    13     2 1
    13     2     1 1
    14     3    14 1
    15     4    15 1
    16     8    16 1
    17    11    17 1
    18    12    18 1
@<TRIPOS>SUBSTRUCTURE
     1 5OO         1 TEMP              0 ****  ****    0 ROOT
