@<TRIPOS>MOLECULE
5OP
   54    54     1     0     0
SMALL
bcc


@<TRIPOS>ATOM
      1 C1          2.4710   -0.9670   -1.6820 c3        1 5OP     -0.089100
      2 C2          3.4940   -0.1200   -0.9710 c3        1 5OP     -0.073400
      3 C3          3.4600   -0.3520    0.5240 c3        1 5OP     -0.096400
      4 C4          4.4560    0.5350    1.2440 c3        1 5OP     -0.050400
      5 C5          4.6240    0.0620    2.6690 c3        1 5OP     -0.217400
      6 C6          5.6040    0.8600    3.4600 c         1 5OP      0.595300
      7 C7          5.6370    0.5140    4.8960 ce        1 5OP     -0.246200
      8 C8          6.6530    0.1620    5.6860 c2        1 5OP     -0.091200
      9 C9          8.1050   -0.0120    5.4280 c3        1 5OP     -0.062500
     10 C10         8.8630    1.2640    4.9830 c3        1 5OP      0.163100
     11 O1          8.1690    2.4710    5.1870 oh        1 5OP     -0.612800
     12 C11         9.2760    1.0440    3.5260 c3        1 5OP     -0.235400
     13 C12         9.2450   -0.4450    3.3110 c         1 5OP      0.587100
     14 O2          9.8390   -1.0260    2.4020 o         1 5OP     -0.537100
     15 C13         8.4210   -1.1080    4.3940 c3        1 5OP     -0.174700
     16 C14         9.2060   -2.2710    4.9900 c3        1 5OP     -0.022200
     17 C15         8.5100   -2.9480    6.1100 c2        1 5OP     -0.199200
     18 C16         7.6640   -3.9770    5.9950 c2        1 5OP     -0.131200
     19 C17         7.2370   -4.5910    4.7170 c3        1 5OP     -0.079200
     20 C18         5.7580   -4.9370    4.7220 c3        1 5OP     -0.044400
     21 C19         5.1830   -4.9410    3.3220 c3        1 5OP     -0.185400
     22 C20         5.0150   -3.5220    2.7730 c         1 5OP      0.904600
     23 O3          6.0350   -2.7700    2.6670 o         1 5OP     -0.858800
     24 O4          6.3000    1.7720    2.9840 o         1 5OP     -0.600100
     25 O5          3.8610   -3.1290    2.4330 o         1 5OP     -0.858800
     26 H11         1.4390   -0.7070   -1.3430 hc        1 5OP      0.025700
     27 H12         2.6450   -2.0500   -1.4680 hc        1 5OP      0.025700
     28 H13A        2.5290   -0.8090   -2.7860 hc        1 5OP      0.025700
     29 H21         4.5180   -0.3640   -1.3610 hc        1 5OP      0.026700
     30 H22         3.3070    0.9640   -1.1910 hc        1 5OP      0.026700
     31 H31         3.6880   -1.4320    0.7600 hc        1 5OP      0.068200
     32 H32         2.4280   -0.1460    0.9120 hc        1 5OP      0.068200
     33 H41         5.4500    0.4970    0.7250 hc        1 5OP      0.030200
     34 H42         4.1150    1.6030    1.2240 hc        1 5OP      0.030200
     35 H51         4.9760   -1.0250    2.6570 hc        1 5OP      0.124700
     36 H52         3.6330    0.0620    3.1960 hc        1 5OP      0.124700
     37 H7          4.6200    0.5260    5.3360 ha        1 5OP      0.131000
     38 H8          6.3940   -0.0800    6.7380 ha        1 5OP      0.108000
     39 H9          8.5640   -0.3230    6.4120 hc        1 5OP      0.050700
     40 H10         9.7820    1.3790    5.6280 h1        1 5OP      0.055700
     41 HO1         7.3730    2.4540    4.6360 ho        1 5OP      0.431000
     42 H111        8.5440    1.5350    2.8290 hc        1 5OP      0.087700
     43 H112       10.2890    1.4650    3.3180 hc        1 5OP      0.087700
     44 H13         7.4700   -1.5150    3.9250 hc        1 5OP      0.162700
     45 H141        9.4130   -2.9990    4.1580 hc        1 5OP      0.046200
     46 H142       10.1990   -1.8940    5.3560 hc        1 5OP      0.046200
     47 H15         8.7470   -2.5470    7.1100 ha        1 5OP      0.096000
     48 H16         7.2150   -4.4190    6.9010 ha        1 5OP      0.098000
     49 H171        7.4310   -3.8840    3.8570 hc        1 5OP      0.072700
     50 H172        7.8430   -5.5200    4.5350 hc        1 5OP      0.072700
     51 H181        5.1970   -4.1880    5.3410 hc        1 5OP      0.016700
     52 H182        5.6080   -5.9410    5.2000 hc        1 5OP      0.016700
     53 H191        5.8570   -5.5100    2.6320 hc        1 5OP      0.029700
     54 H192        4.1840   -5.4450    3.3300 hc        1 5OP      0.029700
@<TRIPOS>BOND
     1    1    2 1   
     2    1   26 1   
     3    1   27 1   
     4    1   28 1   
     5    2    3 1   
     6    2   29 1   
     7    2   30 1   
     8    3    4 1   
     9    3   31 1   
    10    3   32 1   
    11    4    5 1   
    12    4   33 1   
    13    4   34 1   
    14    5    6 1   
    15    5   35 1   
    16    5   36 1   
    17    6    7 1   
    18    6   24 2   
    19    7    8 2   
    20    7   37 1   
    21    8    9 1   
    22    8   38 1   
    23    9   10 1   
    24    9   15 1   
    25    9   39 1   
    26   10   11 1   
    27   10   12 1   
    28   10   40 1   
    29   11   41 1   
    30   12   13 1   
    31   12   42 1   
    32   12   43 1   
    33   13   14 2   
    34   13   15 1   
    35   15   16 1   
    36   15   44 1   
    37   16   17 1   
    38   16   45 1   
    39   16   46 1   
    40   17   18 2   
    41   17   47 1   
    42   18   19 1   
    43   18   48 1   
    44   19   20 1   
    45   19   49 1   
    46   19   50 1   
    47   20   21 1   
    48   20   51 1   
    49   20   52 1   
    50   21   22 1   
    51   21   53 1   
    52   21   54 1   
    53   22   23 1   
    54   22   25 1   
@<TRIPOS>SUBSTRUCTURE
     1 5OP         1 TEMP              0 ****  ****    0 ROOT
