@<TRIPOS>MOLECULE
molecule
   54    54     1     0     0
SMALL
bcc


@<TRIPOS>ATOM
      1 C1           0.0000     0.0000     0.0000 c3         1 5OP      -0.089100
      2 C2           1.5200     0.0000     0.0000 c3         1 5OP      -0.081400
      3 C3           2.0810     0.0000     1.4220 c3         1 5OP      -0.078400
      4 C4           3.6120     0.0330     1.4140 c3         1 5OP      -0.074400
      5 C5           4.2050     0.0650     2.8210 c3         1 5OP      -0.169400
      6 C6           5.7200     0.1130     2.8090 c          1 5OP       0.569300
      7 C7           6.3980     0.0710     4.1340 ce         1 5OP      -0.258200
      8 C8           7.7350     0.1030     4.2210 c2         1 5OP      -0.073200
      9 C9           8.4750     0.0580     5.5180 c3         1 5OP      -0.043500
     10 C10          9.3600     1.2890     5.7720 c3         1 5OP       0.148100
     11 O1          10.1540     1.6240     4.6370 oh         1 5OP      -0.593800
     12 C11         10.2680     0.8690     6.9260 c3         1 5OP      -0.212400
     13 C12         10.4050    -0.6200     6.7000 c          1 5OP       0.573100
     14 O2          11.2030    -1.3240     7.3070 o          1 5OP      -0.528100
     15 C13          9.4460    -1.1320     5.6410 c3         1 5OP      -0.146700
     16 C14          8.7670    -2.4250     6.0590 c3         1 5OP      -0.018200
     17 C15          7.8340    -3.0580     5.0620 c2         1 5OP      -0.222200
     18 C16          7.8810    -2.9490     3.7260 c2         1 5OP      -0.130200
     19 C17          6.9130    -3.6260     2.8010 c3         1 5OP      -0.049200
     20 C18          7.5780    -4.5990     1.8170 c3         1 5OP      -0.055400
     21 C19          6.5980    -5.2790     0.8560 c3         1 5OP      -0.174400
     22 C20          5.5510    -6.1230     1.5500 c          1 5OP       0.888600
     23 O3           4.4050    -6.1980     0.8240 o          1 5OP      -0.858300
     24 O4           6.3490     0.1750     1.7540 o          1 5OP      -0.533100
     25 O5           5.7030    -6.7080     2.6140 o          1 5OP      -0.858300
     26 H11         -0.3610     0.8880     0.5040 hc         1 5OP       0.029367
     27 H12         -0.3610    -0.8810     0.5170 hc         1 5OP       0.029367
     28 H13A        -0.3610    -0.0070    -1.0210 hc         1 5OP       0.029367
     29 H21          1.8740    -0.8820    -0.5200 hc         1 5OP       0.043200
     30 H22          1.8740     0.8820    -0.5200 hc         1 5OP       0.043200
     31 H31          1.7480    -0.8940     1.9350 hc         1 5OP       0.036700
     32 H32          1.7110     0.8710     1.9500 hc         1 5OP       0.036700
     33 H41          3.9780    -0.8480     0.9010 hc         1 5OP       0.055700
     34 H42          3.9400     0.9140     0.8760 hc         1 5OP       0.055700
     35 H51          3.8870    -0.8220     3.3560 hc         1 5OP       0.061700
     36 H52          3.8310     0.9400     3.3390 hc         1 5OP       0.061700
     37 H7           5.8030     0.0090     5.0370 ha         1 5OP       0.129000
     38 H8           8.3140     0.1610     3.3080 ha         1 5OP       0.154000
     39 H9           7.7520    -0.0110     6.3230 hc         1 5OP       0.060700
     40 H10          8.7480     2.1320     6.0690 h1         1 5OP       0.034700
     41 HO1         10.2130     2.5620     4.5600 ho         1 5OP       0.402000
     42 H111         9.7940     1.0690     7.8800 hc         1 5OP       0.078700
     43 H112        11.2320     1.3580     6.8550 hc         1 5OP       0.078700
     44 H13          9.9740    -1.2710     4.7050 hc         1 5OP       0.100700
     45 H141         8.2040    -2.2280     6.9630 hc         1 5OP       0.048200
     46 H142         9.5400    -3.1460     6.2950 hc         1 5OP       0.048200
     47 H15          7.0470    -3.6740     5.4800 ha         1 5OP       0.130000
     48 H16          8.6640    -2.3450     3.2830 ha         1 5OP       0.100000
     49 H171         6.3880    -2.8670     2.2330 hc         1 5OP       0.057700
     50 H172         6.1920    -4.1740     3.3950 hc         1 5OP       0.057700
     51 H181         8.3100    -4.0530     1.2340 hc         1 5OP       0.019700
     52 H182         8.0920    -5.3660     2.3850 hc         1 5OP       0.019700
     53 H191         6.0960    -4.5140     0.2760 hc         1 5OP       0.032700
     54 H192         7.1600    -5.9130     0.1810 hc         1 5OP       0.032700
@<TRIPOS>BOND
     1     1     2 1
     2     1    26 1
     3     1    27 1
     4     1    28 1
     5     2     3 1
     6     2    29 1
     7     2    30 1
     8     3     4 1
     9     3    31 1
    10     3    32 1
    11     4     5 1
    12     4    33 1
    13     4    34 1
    14     5     6 1
    15     5    35 1
    16     5    36 1
    17     6     7 1
    18     6    24 2
    19     7     8 2
    20     7    37 1
    21     8     9 1
    22     8    38 1
    23     9    10 1
    24     9    15 1
    25     9    39 1
    26    10    11 1
    27    10    12 1
    28    10    40 1
    29    11    41 1
    30    12    13 1
    31    12    42 1
    32    12    43 1
    33    13    14 2
    34    13    15 1
    35    15    16 1
    36    15    44 1
    37    16    17 1
    38    16    45 1
    39    16    46 1
    40    17    18 2
    41    17    47 1
    42    18    19 1
    43    18    48 1
    44    19    20 1
    45    19    49 1
    46    19    50 1
    47    20    21 1
    48    20    51 1
    49    20    52 1
    50    21    22 1
    51    21    53 1
    52    21    54 1
    53    22    23 1
    54    22    25 1
@<TRIPOS>SUBSTRUCTURE
     1 5OP         1 TEMP              0 ****  ****    0 ROOT
