@<TRIPOS>MOLECULE
molecule
   47    50     1     0     0
SMALL
bcc


@<TRIPOS>ATOM
      1 C1           0.0000     0.0000     0.0000 ca         1 5OQ      -0.147000
      2 C2           1.3630     0.0000     0.0000 ca         1 5OQ      -0.092000
      3 C3           2.0640     0.0000     1.2170 ca         1 5OQ      -0.210300
      4 C4           1.3420     0.0000     2.4390 ca         1 5OQ       0.041000
      5 C5          -0.0710     0.0010     2.4100 ca         1 5OQ      -0.004000
      6 C10          2.0630     0.0000     3.6400 ca         1 5OQ      -0.319300
      7 C11          3.4430    -0.0010     3.5820 ca         1 5OQ       0.689200
      8 C12          3.4680    -0.0010     1.2620 ca         1 5OQ       0.483200
      9 C13          5.5700    -0.1370     4.7290 ca         1 5OQ       0.102600
     10 C14          6.1780    -0.7630     3.6510 ca         1 5OQ      -0.071000
     11 C6          -0.8470     0.0020     3.6740 cc         1 5OQ      -0.266300
     12 C16          8.3280    -0.3920     4.6480 ca         1 5OQ       0.150100
     13 C15          7.5540    -0.8910     3.6110 ca         1 5OQ      -0.238000
     14 C20         10.2360    -1.1770     3.4660 c3         1 5OQ       0.130700
     15 O1           9.6820    -0.5200     4.6070 os         1 5OQ      -0.332900
     16 C17          7.7250     0.2360     5.7280 ca         1 5OQ      -0.233000
     17 C18          6.3470     0.3650     5.7700 ca         1 5OQ       0.130100
     18 O            5.7530     0.9810     6.8270 os         1 5OQ      -0.336900
     19 C19          6.6120     1.4700     7.8590 c3         1 5OQ       0.130700
     20 N3           4.1740    -0.0020     4.7660 nu         1 5OQ      -0.758300
     21 N2           4.0900    -0.0010     2.4180 nb         1 5OQ      -0.746000
     22 C           -0.7220     0.0060     1.1890 ca         1 5OQ      -0.100000
     23 C8          -0.6600    -0.8680     4.7670 cc         1 5OQ       0.347200
     24 N1          -1.5310    -0.5550     5.6880 nd         1 5OQ      -0.514800
     25 N           -2.3040     0.5170     5.2260 na         1 5OQ       0.065400
     26 C9          -3.3930     1.1700     5.9560 c3         1 5OQ       0.063600
     27 C7          -1.8690     0.8490     3.9930 cd         1 5OQ      -0.099300
     28 H1          -0.5310     0.0040    -0.9440 ha         1 5OQ       0.129000
     29 H2           1.9050    -0.0040    -0.9380 ha         1 5OQ       0.130000
     30 H3           1.5610     0.2220     4.5740 ha         1 5OQ       0.151000
     31 H4           4.0380    -0.0010     0.3420 h4         1 5OQ       0.026100
     32 H5           5.5740    -1.1530     2.8410 ha         1 5OQ       0.175000
     33 H6           8.0280    -1.3800     2.7690 ha         1 5OQ       0.136000
     34 H7          11.3120    -1.2440     3.5750 h1         1 5OQ       0.040367
     35 H8           9.9990    -0.6120     2.5720 h1         1 5OQ       0.040367
     36 H9           9.8190    -2.1740     3.3850 h1         1 5OQ       0.040367
     37 H10          8.3320     0.6250     6.5370 ha         1 5OQ       0.148000
     38 H11          7.3100     2.1850     7.4390 h1         1 5OQ       0.042367
     39 H12          7.1600     0.6440     8.2950 h1         1 5OQ       0.042367
     40 H13          6.0180     1.9540     8.6250 h1         1 5OQ       0.042367
     41 H14          3.7020     0.0660     5.6450 hn         1 5OQ       0.465800
     42 H15         -1.8050     0.0060     1.1590 ha         1 5OQ       0.131000
     43 H16          0.0780    -1.6580     4.8330 h4         1 5OQ       0.057100
     44 H17         -4.3150     1.0650     5.3990 h1         1 5OQ       0.055367
     45 H18         -3.5040     0.7060     6.9290 h1         1 5OQ       0.055367
     46 H19         -3.1630     2.2210     6.0820 h1         1 5OQ       0.055367
     47 H20         -2.2630     1.6410     3.3670 h4         1 5OQ       0.174000
@<TRIPOS>BOND
     1    26    25 1
     2    22     1 ar
     3    22     5 ar
     4     1     2 ar
     5    27    25 1
     6    27    11 2
     7    25    24 1
     8    11     5 1
     9    11    23 1
    10     5     4 ar
    11     2     3 ar
    12    24    23 2
    13     4     3 ar
    14     4     6 ar
    15     3     8 ar
    16     6     7 ar
    17     8    21 ar
    18     7    21 ar
    19     7    20 1
    20    10    13 ar
    21    10     9 ar
    22    13    12 ar
    23    20     9 1
    24     9    17 ar
    25    14    15 1
    26    12    15 1
    27    12    16 ar
    28    17    16 ar
    29    17    18 1
    30    18    19 1
    31     1    28 1
    32     2    29 1
    33     6    30 1
    34     8    31 1
    35    10    32 1
    36    13    33 1
    37    14    34 1
    38    14    35 1
    39    14    36 1
    40    16    37 1
    41    19    38 1
    42    19    39 1
    43    19    40 1
    44    20    41 1
    45    22    42 1
    46    23    43 1
    47    26    44 1
    48    26    45 1
    49    26    46 1
    50    27    47 1
@<TRIPOS>SUBSTRUCTURE
     1 5OQ         1 TEMP              0 ****  ****    0 ROOT
