@<TRIPOS>MOLECULE
molecule
   27    29     1     0     0
SMALL
bcc


@<TRIPOS>ATOM
      1 O01          0.0000     0.0000     0.0000 oh         1 5OR      -0.523100
      2 C02          1.3590     0.0000     0.0000 ca         1 5OR       0.113100
      3 C03          2.0520     0.0000     1.2030 ca         1 5OR      -0.157500
      4 C04          3.4310    -0.0000     1.2070 ca         1 5OR      -0.089000
      5 C05          4.1290     0.0010     0.0010 ca         1 5OR      -0.037800
      6 C06          5.6130     0.0060     0.0010 cc         1 5OR       0.182400
      7 N07          6.4020    -0.6130    -0.8910 nc         1 5OR      -0.302600
      8 C08          7.6710    -0.3900    -0.5770 cd         1 5OR      -0.016300
      9 C09          8.8780    -0.8070    -1.1740 cd         1 5OR      -0.074000
     10 C10         10.0620    -0.4250    -0.6250 cc         1 5OR      -0.145000
     11 C11         10.0670     0.3800     0.5300 cc         1 5OR       0.083100
     12 O12         11.2490     0.7650     1.0840 oh         1 5OR      -0.505100
     13 C13          8.9000     0.7730     1.0920 cd         1 5OR      -0.114300
     14 N14          7.7040     0.3940     0.5470 na         1 5OR       0.073700
     15 C15          6.4090     0.6450     0.9050 cd         1 5OR      -0.082300
     16 I16          5.7680     1.7860     2.5410 i          1 5OR      -0.086800
     17 C17          3.4310    -0.0000    -1.2050 ca         1 5OR      -0.089000
     18 C18          2.0520    -0.0050    -1.2020 ca         1 5OR      -0.157500
     19 H1          -0.3140     0.8890    -0.0010 ho         1 5OR       0.420000
     20 H2           1.5080    -0.0010     2.1400 ha         1 5OR       0.142500
     21 H3           3.9710    -0.0000     2.1460 ha         1 5OR       0.148000
     22 H4           8.8620    -1.4260    -2.0620 ha         1 5OR       0.168000
     23 H5          10.9910    -0.6440    -1.1370 ha         1 5OR       0.157000
     24 H6          11.5200     0.1260     1.7230 ho         1 5OR       0.424000
     25 H7           8.9130     1.3920     1.9810 h4         1 5OR       0.179000
     26 H8           3.9720    -0.0020    -2.1450 ha         1 5OR       0.148000
     27 H9           1.5090    -0.0060    -2.1390 ha         1 5OR       0.142500
@<TRIPOS>BOND
     1    12    11 1
     2    10    11 1
     3    10     9 2
     4    11    13 2
     5     9     8 1
     6    13    14 1
     7     8    14 1
     8     8     7 2
     9    14    15 1
    10     7     6 1
    11    15     6 2
    12    15    16 1
    13     6     5 1
    14     5    17 ar
    15     5     4 ar
    16    17    18 ar
    17     4     3 ar
    18    18     2 ar
    19     3     2 ar
    20     2     1 1
    21     1    19 1
    22     3    20 1
    23     4    21 1
    24     9    22 1
    25    10    23 1
    26    12    24 1
    27    13    25 1
    28    17    26 1
    29    18    27 1
@<TRIPOS>SUBSTRUCTURE
     1 5OR         1 TEMP              0 ****  ****    0 ROOT
