@<TRIPOS>MOLECULE
molecule
   34    35     1     0     0
SMALL
bcc


@<TRIPOS>ATOM
      1 CAP          0.0000     0.0000     0.0000 ca         1 5OT      -0.058000
      2 CAO          1.3820     0.0000     0.0000 ca         1 5OT       0.056900
      3 IAQ          2.4280     0.0020    -1.8160 i          1 5OT      -0.136900
      4 CAN          2.0750     0.0000     1.1970 ca         1 5OT      -0.079000
      5 CAM          1.3880    -0.0020     2.3970 ca         1 5OT      -0.121000
      6 CAL          0.0070    -0.0020     2.4040 ca         1 5OT      -0.117000
      7 CAK         -0.6920    -0.0010     1.2040 ca         1 5OT       0.005600
      8 NAI         -2.0910    -0.0020     1.2070 ns         1 5OT      -0.385100
      9 CAH         -2.7680    -0.7670     0.3280 cs         1 5OT       0.582400
     10 SAJ         -1.9200    -1.8490    -0.6950 s          1 5OT      -0.620400
     11 NAG         -4.1100    -0.6820     0.2530 ns         1 5OT      -0.437100
     12 CAD         -4.8210    -1.5580    -0.5730 ca         1 5OT       0.157600
     13 CAC         -4.4670    -2.8990    -0.6330 ca         1 5OT      -0.130500
     14 CAB         -5.1720    -3.7620    -1.4500 ca         1 5OT      -0.022500
     15 CAA         -6.2290    -3.2920    -2.2070 ca         1 5OT      -0.350500
     16 SAR         -7.1260    -4.3960    -3.2460 sy         1 5OT       1.224200
     17 OAS         -7.7250    -3.5980    -4.2570 o          1 5OT      -0.517800
     18 OAT         -6.2520    -5.4800    -3.5290 o          1 5OT      -0.517800
     19 NAU         -8.3680    -5.0200    -2.3450 nz         1 5OT      -0.805500
     20 CAF         -6.5850    -1.9570    -2.1490 ca         1 5OT      -0.022500
     21 CAE         -5.8880    -1.0910    -1.3290 ca         1 5OT      -0.130500
     22 H1          -0.5420     0.0010    -0.9380 ha         1 5OT       0.174000
     23 H2           3.1580     0.0000     1.1950 ha         1 5OT       0.153000
     24 H3           1.9330    -0.0030     3.3330 ha         1 5OT       0.149000
     25 H4          -0.5310    -0.0030     3.3440 ha         1 5OT       0.134000
     26 H5          -2.5900     0.5740     1.8560 hn         1 5OT       0.327500
     27 H8          -4.6000    -0.0060     0.8050 hn         1 5OT       0.335500
     28 H9          -3.6390    -3.2680    -0.0400 ha         1 5OT       0.182500
     29 H10         -4.8960    -4.8090    -1.4970 ha         1 5OT       0.158500
     30 H11         -8.9020    -5.6530    -2.9060 hn         1 5OT       0.490133
     31 H12         -8.9570    -4.2750    -2.0290 hn         1 5OT       0.490133
     32 H13         -7.4160    -1.5920    -2.7410 ha         1 5OT       0.158500
     33 H14         -6.1680    -0.0450    -1.2840 ha         1 5OT       0.182500
     34 HAU3        -7.9950    -5.4930    -1.5460 hn         1 5OT       0.490133
@<TRIPOS>BOND
     1    10     9 2   
     2     8     9 1   
     3     8     7 1   
     4     3     2 1   
     5     1     7 ar  
     6     1     2 ar  
     7     9    11 1   
     8     7     6 ar  
     9     2     4 ar  
    10    11    12 1   
    11    12    21 ar  
    12    12    13 ar  
    13     6     5 ar  
    14    21    20 ar  
    15     4     5 ar  
    16    13    14 ar  
    17    20    15 ar  
    18    14    15 ar  
    19    15    16 1   
    20    19    16 1   
    21    18    16 2   
    22    16    17 2   
    23     1    22 1   
    24     4    23 1   
    25     5    24 1   
    26     6    25 1   
    27     8    26 1   
    28    11    27 1   
    29    13    28 1   
    30    14    29 1   
    31    19    30 1   
    32    19    31 1   
    33    20    32 1   
    34    21    33 1   
    35    34    19 1   
@<TRIPOS>SUBSTRUCTURE
     1 5OT         1 TEMP              0 ****  ****    0 ROOT
