@<TRIPOS>MOLECULE
5OT
   34    35     1     0     0
SMALL
bcc


@<TRIPOS>ATOM
      1 CAP          0.0000     0.0000     0.0000 ca         1 5OT      -0.039000
      2 CAO          1.3820     0.0000     0.0000 ca         1 5OT       0.188900
      3 IAQ          2.4280     0.0020    -1.8160 i          1 5OT      -0.244900
      4 CAN          2.0750     0.0000     1.1970 ca         1 5OT      -0.049000
      5 CAM          1.3880    -0.0020     2.3970 ca         1 5OT      -0.089000
      6 CAL          0.0070    -0.0020     2.4040 ca         1 5OT      -0.087000
      7 CAK         -0.6920    -0.0010     1.2040 ca         1 5OT      -0.175400
      8 NAI         -2.0910    -0.0020     1.2070 ns         1 5OT       0.164900
      9 CAH         -2.7680    -0.7670     0.3280 cs         1 5OT       0.222400
     10 SAJ         -1.9200    -1.8490    -0.6950 s          1 5OT      -0.660400
     11 NAG         -4.1100    -0.6820     0.2530 ns         1 5OT       0.050900
     12 CAD         -4.8210    -1.5580    -0.5730 ca         1 5OT       0.000600
     13 CAC         -4.4670    -2.8990    -0.6330 ca         1 5OT      -0.110500
     14 CAB         -5.1720    -3.7620    -1.4500 ca         1 5OT       0.018500
     15 CAA         -6.2290    -3.2920    -2.2070 ca         1 5OT      -0.232500
     16 SAR         -7.1260    -4.3960    -3.2460 sy         1 5OT       0.931200
     17 OAS         -7.7250    -3.5980    -4.2570 o          1 5OT      -0.494800
     18 OAT         -6.2520    -5.4800    -3.5290 o          1 5OT      -0.494800
     19 NAU         -8.3680    -5.0200    -2.3450 nz         1 5OT      -0.133500
     20 CAF         -6.5850    -1.9570    -2.1490 ca         1 5OT       0.018500
     21 CAE         -5.8880    -1.0910    -1.3290 ca         1 5OT      -0.110500
     22 H1          -0.5420     0.0010    -0.9380 ha         1 5OT       0.161000
     23 H2           3.1580     0.0000     1.1950 ha         1 5OT       0.124000
     24 H3           1.9330    -0.0030     3.3330 ha         1 5OT       0.117000
     25 H4          -0.5310    -0.0030     3.3440 ha         1 5OT       0.106000
     26 H5          -2.5900     0.5740     1.8560 hn         1 5OT       0.151500
     27 H8          -4.6000    -0.0060     0.8050 hn         1 5OT       0.165500
     28 H9          -3.6390    -3.2680    -0.0400 ha         1 5OT       0.155000
     29 H10         -4.8960    -4.8090    -1.4970 ha         1 5OT       0.126500
     30 H11         -8.9020    -5.6530    -2.9060 hn         1 5OT       0.312133
     31 H12         -8.9570    -4.2750    -2.0290 hn         1 5OT       0.312133
     32 H13         -7.4160    -1.5920    -2.7410 ha         1 5OT       0.126500
     33 H14         -6.1680    -0.0450    -1.2840 ha         1 5OT       0.155000
     34 HAU3        -7.9950    -5.4930    -1.5460 hn         1 5OT       0.312133
@<TRIPOS>BOND
     1     1     2 ar  
     2     1     7 ar  
     3     1    22 1   
     4     2     3 1   
     5     2     4 ar  
     6     4     5 ar  
     7     4    23 1   
     8     5     6 ar  
     9     5    24 1   
    10     6     7 ar  
    11     6    25 1   
    12     7     8 1   
    13     8     9 1   
    14     8    26 1   
    15     9    10 2   
    16     9    11 1   
    17    11    12 1   
    18    11    27 1   
    19    12    13 ar  
    20    12    21 ar  
    21    13    14 ar  
    22    13    28 1   
    23    14    15 ar  
    24    14    29 1   
    25    15    16 1   
    26    15    20 ar  
    27    16    17 2   
    28    16    18 2   
    29    16    19 1   
    30    19    30 1   
    31    19    31 1   
    32    19    34 1   
    33    20    21 ar  
    34    20    32 1   
    35    21    33 1   
@<TRIPOS>SUBSTRUCTURE
     1 5OT         1 TEMP              0 ****  ****    0 ROOT
