@<TRIPOS>MOLECULE
molecule
   34    36     1     0     0
SMALL
bcc


@<TRIPOS>ATOM
      1 C4           0.0000     0.0000     0.0000 cc         1 5OU       0.501200
      2 C5           1.3890     0.0000     0.0000 cd         1 5OU      -0.362200
      3 C6           2.0770     0.0000     1.2330 c          1 5OU       0.751100
      4 C8           0.6480    -0.0000    -2.0640 cd         1 5OU       0.462400
      5 N1           1.3700     0.0010     2.3820 ns         1 5OU      -0.555500
      6 N3          -0.6690    -0.0050     1.2140 n          1 5OU      -0.418300
      7 CAU          3.6710    -1.4370    -1.8920 c3         1 5OU      -0.114100
      8 N7           1.7750    -0.0000    -1.3260 na         1 5OU      -0.133900
      9 N9          -0.3970    -0.0010    -1.2750 nc         1 5OU      -0.730000
     10 O6           3.2950    -0.0000     1.2580 o          1 5OU      -0.638500
     11 C2           0.0260     0.0000     2.3670 c          1 5OU       0.822500
     12 O2          -0.5780    -0.0040     3.4220 o          1 5OU      -0.659500
     13 CAI         -2.1340    -0.0050     1.2420 c3         1 5OU       0.166300
     14 CAJ         -2.6370    -1.4250     1.2460 ca         1 5OU      -0.125300
     15 CAK         -2.8430    -2.0810     2.4450 ca         1 5OU      -0.095000
     16 CAL         -3.3050    -3.3850     2.4490 ca         1 5OU      -0.130500
     17 CAM         -3.5580    -4.0320     1.2540 ca         1 5OU       0.038400
     18 Cl          -4.1380    -5.6680     1.2590 cl         1 5OU      -0.111400
     19 CAN         -3.3510    -3.3750     0.0530 ca         1 5OU      -0.130500
     20 CAO         -2.8960    -2.0700     0.0510 ca         1 5OU      -0.095000
     21 H1           0.6120     0.0020    -3.1470 h5         1 5OU       0.077100
     22 H2           1.8540     0.0050     3.2580 hn         1 5OU       0.370500
     23 H3           4.2640    -1.5700    -2.7890 hc         1 5OU       0.053367
     24 H4           2.8090    -2.0920    -1.9280 hc         1 5OU       0.053367
     25 H5           4.2720    -1.6780    -1.0230 hc         1 5OU       0.053367
     26 H6           3.7770     0.5860    -1.1750 h1         1 5OU       0.075200
     27 H7           3.1660     0.4300    -2.8280 h1         1 5OU       0.075200
     28 H8          -2.4770     0.5020     2.1360 h1         1 5OU       0.081700
     29 H9          -2.5120     0.5100     0.3670 h1         1 5OU       0.081700
     30 H10         -2.6450    -1.5740     3.3810 ha         1 5OU       0.154000
     31 H11         -3.4670    -3.8990     3.3880 ha         1 5OU       0.145000
     32 H12         -3.5520    -3.8810    -0.8830 ha         1 5OU       0.145000
     33 H13         -2.7340    -1.5550    -0.8890 ha         1 5OU       0.154000
     34 CAT          3.1480    -0.0000    -1.8340 c3         1 5OU       0.037300
@<TRIPOS>BOND
     1    18    17 1
     2    19    17 ar
     3    19    20 ar
     4    17    16 ar
     5    20    14 ar
     6    16    15 ar
     7    12    11 2
     8    14    15 ar
     9    14    13 1
    10    13     6 1
    11    11     6 1
    12    11     5 1
    13     6     1 1
    14     5     3 1
    15     1     2 2
    16     1     9 1
    17     3    10 2
    18     3     2 1
    19     2     8 1
    20     9     4 2
    21     8     4 1
    22     8    34 1
    23     7    34 1
    24     4    21 1
    25     5    22 1
    26     7    23 1
    27     7    24 1
    28     7    25 1
    29    34    26 1
    30    34    27 1
    31    13    28 1
    32    13    29 1
    33    15    30 1
    34    16    31 1
    35    19    32 1
    36    20    33 1
@<TRIPOS>SUBSTRUCTURE
     1 5OU         1 TEMP              0 ****  ****    0 ROOT
