@<TRIPOS>MOLECULE
5OU
   34    36     1     0     0
SMALL
bcc


@<TRIPOS>ATOM
      1 C4           0.0000     0.0000     0.0000 cc         1 5OU       0.327200
      2 C5           1.3890     0.0000     0.0000 cd         1 5OU      -0.549200
      3 C6           2.0770     0.0000     1.2330 c          1 5OU       0.676100
      4 C8           0.6480    -0.0000    -2.0640 cd         1 5OU       0.264400
      5 N1           1.3700     0.0010     2.3820 ns         1 5OU      -0.120500
      6 N3          -0.6690    -0.0050     1.2140 n          1 5OU       0.003700
      7 CAU          3.6710    -1.4370    -1.8920 c3         1 5OU      -0.009100
      8 N7           1.7750    -0.0000    -1.3260 na         1 5OU       0.386100
      9 N9          -0.3970    -0.0010    -1.2750 nc         1 5OU      -0.633000
     10 O6           3.2950    -0.0000     1.2580 o          1 5OU      -0.686500
     11 C2           0.0260     0.0000     2.3670 c          1 5OU       0.592500
     12 O2          -0.5780    -0.0040     3.4220 o          1 5OU      -0.712500
     13 CAI         -2.1340    -0.0050     1.2420 c3         1 5OU       0.092300
     14 CAJ         -2.6370    -1.4250     1.2460 ca         1 5OU      -0.133300
     15 CAK         -2.8430    -2.0810     2.4450 ca         1 5OU      -0.070000
     16 CAL         -3.3050    -3.3850     2.4490 ca         1 5OU      -0.107000
     17 CAM         -3.5580    -4.0320     1.2540 ca         1 5OU      -0.025600
     18 Cl          -4.1380    -5.6680     1.2590 cl         1 5OU      -0.030400
     19 CAN         -3.3510    -3.3750     0.0530 ca         1 5OU      -0.107000
     20 CAO         -2.8960    -2.0700     0.0510 ca         1 5OU      -0.070000
     21 H1           0.6120     0.0020    -3.1470 h5         1 5OU       0.029100
     22 H2           1.8540     0.0050     3.2580 hn         1 5OU       0.208500
     23 H3           4.2640    -1.5700    -2.7890 hc         1 5OU       0.018367
     24 H4           2.8090    -2.0920    -1.9280 hc         1 5OU       0.018367
     25 H5           4.2720    -1.6780    -1.0230 hc         1 5OU       0.018367
     26 H6           3.7770     0.5860    -1.1750 h1         1 5OU       0.049200
     27 H7           3.1660     0.4300    -2.8280 h1         1 5OU       0.049200
     28 H8          -2.4770     0.5020     2.1360 h1         1 5OU       0.050700
     29 H9          -2.5120     0.5100     0.3670 h1         1 5OU       0.050700
     30 H10         -2.6450    -1.5740     3.3810 ha         1 5OU       0.126500
     31 H11         -3.4670    -3.8990     3.3880 ha         1 5OU       0.116000
     32 H12         -3.5520    -3.8810    -0.8830 ha         1 5OU       0.116000
     33 H13         -2.7340    -1.5550    -0.8890 ha         1 5OU       0.126500
     34 CAT          3.1480    -0.0000    -1.8340 c3         1 5OU      -0.063700
@<TRIPOS>BOND
     1     1     2 2   
     2     1     6 1   
     3     1     9 1   
     4     2     3 1   
     5     2     8 1   
     6     3     5 1   
     7     3    10 2   
     8     4     8 1   
     9     4     9 2   
    10     4    21 1   
    11     5    11 1   
    12     5    22 1   
    13     6    11 1   
    14     6    13 1   
    15     7    23 1   
    16     7    24 1   
    17     7    25 1   
    18     7    34 1   
    19     8    34 1   
    20    11    12 2   
    21    13    14 1   
    22    13    28 1   
    23    13    29 1   
    24    14    15 ar  
    25    14    20 ar  
    26    15    16 ar  
    27    15    30 1   
    28    16    17 ar  
    29    16    31 1   
    30    17    18 1   
    31    17    19 ar  
    32    19    20 ar  
    33    19    32 1   
    34    20    33 1   
    35    26    34 1   
    36    27    34 1   
@<TRIPOS>SUBSTRUCTURE
     1 5OU         1 TEMP              0 ****  ****    0 ROOT
