@<TRIPOS>MOLECULE
5OX
   59    58     1     0     0
SMALL
bcc


@<TRIPOS>ATOM
      1 O24        -0.4940   -3.3290   -1.9110 o         1 5OX     -0.848800
      2 C23         0.6950   -3.2150   -1.4920 c         1 5OX      0.909600
      3 O25         1.1940   -3.9280   -0.5770 o         1 5OX     -0.848800
      4 C22         1.5860   -2.1220   -2.1140 c3        1 5OX     -0.198400
      5 C21         1.3630   -2.0170   -3.6030 c3        1 5OX     -0.067400
      6 C20         1.8080   -0.6710   -4.1410 c3        1 5OX     -0.180400
      7 C19         1.5860   -0.5280   -5.6160 c         1 5OX      0.581100
      8 O26         2.4860   -0.1640   -6.3860 o         1 5OX     -0.572100
      9 C18         0.2130   -0.8490   -6.1550 c3        1 5OX     -0.159200
     10 C17        -0.8610   -0.1240   -5.4370 c2        1 5OX     -0.149200
     11 C16        -1.6970    0.7610   -5.9870 c2        1 5OX     -0.189200
     12 C15        -1.6720    1.1870   -7.4070 c3        1 5OX     -0.045200
     13 C14        -2.7510    2.2100   -7.7070 c3        1 5OX     -0.050200
     14 C13        -2.7350    2.6440   -9.1240 c2        1 5OX     -0.161200
     15 C12        -3.6930    3.3920   -9.6840 c2        1 5OX     -0.185200
     16 C11        -4.8940    3.8600   -8.9520 c3        1 5OX     -0.019000
     17 C10        -5.7250    4.8200   -9.7170 c2        1 5OX     -0.164200
     18 C9         -6.9070    5.2790   -9.2880 c2        1 5OX     -0.178200
     19 C8         -7.5230    4.8710   -8.0040 c3        1 5OX     -0.020000
     20 C7         -8.7820    5.5870   -7.6890 c2        1 5OX     -0.171200
     21 C6         -9.4780    5.3940   -6.5620 c2        1 5OX     -0.171200
     22 C5         -9.0680    4.4470   -5.4990 c3        1 5OX     -0.020000
     23 C4        -10.0240    4.3620   -4.3700 c2        1 5OX     -0.177200
     24 C3         -9.8330    3.5830   -3.2990 c2        1 5OX     -0.169200
     25 C2         -8.6460    2.7150   -3.1110 c3        1 5OX     -0.052200
     26 C1         -8.6980    1.9320   -1.8230 c3        1 5OX     -0.092100
     27 H2          1.3250   -1.1550   -1.6130 hc        1 5OX      0.023700
     28 H3          2.6590   -2.3450   -1.8910 hc        1 5OX      0.023700
     29 H4          0.2670   -2.1720   -3.8050 hc        1 5OX      0.050700
     30 H5          1.9210   -2.8340   -4.1290 hc        1 5OX      0.050700
     31 H6          1.2320    0.1460   -3.6280 hc        1 5OX      0.059700
     32 H7          2.8960   -0.5130   -3.9130 hc        1 5OX      0.059700
     33 H8          0.0510   -1.9570   -6.0240 hc        1 5OX      0.073200
     34 H9          0.1890   -0.6280   -7.2560 hc        1 5OX      0.073200
     35 H10        -0.9540   -0.3870   -4.3660 ha        1 5OX      0.153000
     36 H11        -2.4780    1.2270   -5.3640 ha        1 5OX      0.118000
     37 H12        -1.8150    0.2920   -8.0730 hc        1 5OX      0.050200
     38 H13        -0.6650    1.6210   -7.6550 hc        1 5OX      0.050200
     39 H14        -2.6110    3.1080   -7.0450 hc        1 5OX      0.048200
     40 H15        -3.7580    1.7770   -7.4560 hc        1 5OX      0.048200
     41 H16        -1.8650    2.3180   -9.7180 ha        1 5OX      0.124000
     42 H17        -3.6200    3.6860  -10.7430 ha        1 5OX      0.118000
     43 H18        -5.5220    2.9660   -8.6680 hc        1 5OX      0.057200
     44 H19        -4.5770    4.3400   -7.9810 hc        1 5OX      0.057200
     45 H20        -5.3170    5.1580  -10.6830 ha        1 5OX      0.121000
     46 H21        -7.4780    5.9960   -9.8990 ha        1 5OX      0.119000
     47 H22        -7.7250    3.7600   -8.0280 hc        1 5OX      0.058200
     48 H23        -6.7840    5.0340   -7.1670 hc        1 5OX      0.058200
     49 H24        -9.1370    6.3080   -8.4430 ha        1 5OX      0.120000
     50 H25       -10.4090    5.9570   -6.3840 ha        1 5OX      0.120000
     51 H26        -8.9320    3.4200   -5.9470 hc        1 5OX      0.058200
     52 H27        -8.0540    4.7490   -5.1050 hc        1 5OX      0.058200
     53 H28       -10.9300    4.9850   -4.4480 ha        1 5OX      0.118000
     54 H29       -10.5790    3.5590   -2.4890 ha        1 5OX      0.120000
     55 H30        -8.5660    2.0040   -3.9800 hc        1 5OX      0.048700
     56 H31        -7.7170    3.3490   -3.1290 hc        1 5OX      0.048700
     57 H32        -7.7870    1.2940   -1.7240 hc        1 5OX      0.036367
     58 H33        -9.5980    1.2710   -1.7990 hc        1 5OX      0.036367
     59 H34        -8.7450    2.6200   -0.9450 hc        1 5OX      0.036367
@<TRIPOS>BOND
     1    1    2 1   
     2    2    3 1   
     3    2    4 1   
     4    4    5 1   
     5    4   27 1   
     6    4   28 1   
     7    5    6 1   
     8    5   29 1   
     9    5   30 1   
    10    6    7 1   
    11    6   31 1   
    12    6   32 1   
    13    7    8 2   
    14    7    9 1   
    15    9   10 1   
    16    9   33 1   
    17    9   34 1   
    18   10   11 2   
    19   10   35 1   
    20   11   12 1   
    21   11   36 1   
    22   12   13 1   
    23   12   37 1   
    24   12   38 1   
    25   13   14 1   
    26   13   39 1   
    27   13   40 1   
    28   14   15 2   
    29   14   41 1   
    30   15   16 1   
    31   15   42 1   
    32   16   17 1   
    33   16   43 1   
    34   16   44 1   
    35   17   18 2   
    36   17   45 1   
    37   18   19 1   
    38   18   46 1   
    39   19   20 1   
    40   19   47 1   
    41   19   48 1   
    42   20   21 2   
    43   20   49 1   
    44   21   22 1   
    45   21   50 1   
    46   22   23 1   
    47   22   51 1   
    48   22   52 1   
    49   23   24 2   
    50   23   53 1   
    51   24   25 1   
    52   24   54 1   
    53   25   26 1   
    54   25   55 1   
    55   25   56 1   
    56   26   57 1   
    57   26   58 1   
    58   26   59 1   
@<TRIPOS>SUBSTRUCTURE
     1 5OX         1 TEMP              0 ****  ****    0 ROOT
