@<TRIPOS>MOLECULE
molecule
   59    58     1     0     0
SMALL
bcc


@<TRIPOS>ATOM
      1 O24          0.0000     0.0000     0.0000 o          1 5OX      -0.852300
      2 C23          1.2080     0.0000     0.0000 c          1 5OX       0.891600
      3 O25          1.8790     0.0000     1.1630 o          1 5OX      -0.852300
      4 C22          1.9620    -0.0060    -1.3040 c3         1 5OX      -0.185400
      5 C21          0.9670    -0.0110    -2.4680 c3         1 5OX      -0.055400
      6 C20          1.7320    -0.0180    -3.7930 c3         1 5OX      -0.185400
      7 C19          0.7530    -0.0240    -4.9390 c          1 5OX       0.560100
      8 O26         -0.4350    -0.0220    -4.7180 o          1 5OX      -0.521100
      9 C18          1.2560    -0.0300    -6.3590 c3         1 5OX      -0.162200
     10 C17          0.0830    -0.0340    -7.3060 c2         1 5OX      -0.128200
     11 C16         -0.0180     0.8910    -8.2290 c2         1 5OX      -0.217200
     12 C15         -1.1900     0.8860    -9.1750 c3         1 5OX      -0.050200
     13 C14         -1.8960     2.2420    -9.1180 c3         1 5OX       0.032800
     14 C13         -3.0690     2.2370   -10.0660 c2         1 5OX      -0.243200
     15 C12         -4.2580     2.5840    -9.6380 c2         1 5OX      -0.174200
     16 C11         -4.4250     3.1420    -8.2490 c3         1 5OX       0.292000
     17 C10         -5.1490     4.4610    -8.3220 c2         1 5OX      -0.255200
     18 C9          -6.2140     4.6650    -7.5880 c2         1 5OX      -0.128200
     19 C8          -6.6220     3.6500    -6.5530 c3         1 5OX      -0.124000
     20 C7          -6.7780     4.3290    -5.2160 c2         1 5OX      -0.276200
     21 C6          -7.8900     4.1930    -4.5380 c2         1 5OX      -0.317200
     22 C5          -8.9440     3.2220    -5.0040 c3         1 5OX      -0.060000
     23 C4          -9.3050     2.2910    -3.8750 c2         1 5OX      -0.076200
     24 C3         -10.5570     2.1530    -3.5160 c2         1 5OX      -0.280200
     25 C2         -11.6500     2.7930    -4.3320 c3         1 5OX       0.104800
     26 C1         -12.7010     1.7410    -4.6900 c3         1 5OX      -0.107100
     27 H2           2.5850    -0.8900    -1.3580 hc         1 5OX       0.024700
     28 H3           2.5840     0.8790    -1.3660 hc         1 5OX       0.024700
     29 H4           0.3440    -0.8950    -2.4060 hc         1 5OX       0.059200
     30 H5           0.3440     0.8740    -2.4140 hc         1 5OX       0.059200
     31 H6           2.3550     0.8660    -3.8550 hc         1 5OX       0.053700
     32 H7           2.3540    -0.9030    -3.8460 hc         1 5OX       0.053700
     33 H8           1.8570     0.8540    -6.5330 hc         1 5OX       0.065700
     34 H9           1.8570    -0.9150    -6.5250 hc         1 5OX       0.065700
     35 H10         -0.6770    -0.8020    -7.2250 ha         1 5OX       0.136000
     36 H11          0.7420     1.6590    -8.3100 ha         1 5OX       0.122000
     37 H12         -1.8830     0.1050    -8.8870 hc         1 5OX       0.056700
     38 H13         -0.8390     0.7040   -10.1840 hc         1 5OX       0.056700
     39 H14         -2.2470     2.4240    -8.1100 hc         1 5OX       0.052200
     40 H15         -1.2020     3.0220    -9.4060 hc         1 5OX       0.052200
     41 H16         -2.5170     3.1470    -9.8630 ha         1 5OX       0.118000
     42 H17         -4.3520     1.9290    -8.7800 ha         1 5OX       0.004000
     43 H18         -3.4510     3.2880    -7.7990 hc         1 5OX       0.060700
     44 H19         -5.0000     2.4470    -7.6480 hc         1 5OX       0.060700
     45 H20         -4.4160     4.2670    -7.5480 ha         1 5OX       0.035000
     46 H21         -6.8030     3.7970    -7.8580 ha         1 5OX       0.142000
     47 H22         -7.5650     3.2000    -6.8410 hc         1 5OX       0.029700
     48 H23         -5.8620     2.8820    -6.4810 hc         1 5OX       0.029700
     49 H24         -6.4600     3.2950    -5.2810 ha         1 5OX       0.284000
     50 H25         -8.6140     4.4780    -5.2910 ha         1 5OX       0.270000
     51 H26         -8.5610     2.6460    -5.8380 hc         1 5OX       0.027700
     52 H27         -9.8250     3.7680    -5.3170 hc         1 5OX       0.027700
     53 H28         -9.3620     1.9670    -4.9070 ha         1 5OX       0.103000
     54 H29        -10.8310     3.1900    -3.3680 ha         1 5OX       0.077000
     55 H30        -12.1140     3.5850    -3.7570 hc         1 5OX       0.042200
     56 H31        -11.2290     3.2060    -5.2410 hc         1 5OX       0.042200
     57 H32        -13.0890     1.2950    -3.7820 hc         1 5OX       0.043700
     58 H33        -12.2490     0.9720    -5.3050 hc         1 5OX       0.043700
     59 H34        -13.5110     2.2100    -5.2360 hc         1 5OX       0.043700
@<TRIPOS>BOND
     1    21    20 2   
     2    21    22 1   
     3    20    19 1   
     4    23    22 1   
     5    23    24 2   
     6    19    18 1   
     7    16    15 1   
     8    16    17 1   
     9    24    25 1   
    10    15    14 2   
    11    18    17 2   
    12    25    26 1   
    13    14    13 1   
    14    13    12 1   
    15    12    11 1   
    16    11    10 2   
    17    10     9 1   
    18     9     7 1   
    19     7     8 2   
    20     7     6 1   
    21     6     5 1   
    22     5     4 1   
    23     4     2 1   
    24     2     1 1   
    25     2     3 1   
    26     4    27 1   
    27     4    28 1   
    28     5    29 1   
    29     5    30 1   
    30     6    31 1   
    31     6    32 1   
    32     9    33 1   
    33     9    34 1   
    34    10    35 1   
    35    11    36 1   
    36    12    37 1   
    37    12    38 1   
    38    13    39 1   
    39    13    40 1   
    40    14    41 1   
    41    15    42 1   
    42    16    43 1   
    43    16    44 1   
    44    17    45 1   
    45    18    46 1   
    46    19    47 1   
    47    19    48 1   
    48    20    49 1   
    49    21    50 1   
    50    22    51 1   
    51    22    52 1   
    52    23    53 1   
    53    24    54 1   
    54    25    55 1   
    55    25    56 1   
    56    26    57 1   
    57    26    58 1   
    58    26    59 1   
@<TRIPOS>SUBSTRUCTURE
     1 5OX         1 TEMP              0 ****  ****    0 ROOT
