@<TRIPOS>MOLECULE
molecule
   13    12     1     0     0
SMALL
bcc


@<TRIPOS>ATOM
      1 O            0.0000     0.0000     0.0000 o          1 5OZ      -0.522100
      2 C01          1.9620     0.0000     1.3040 c3         1 5OZ      -0.196700
      3 C02          1.2080     0.0000     0.0000 c          1 5OZ       0.573900
      4 C03          2.8420    -1.2490     1.3850 c3         1 5OZ      -0.083100
      5 C            2.8420     1.2490     1.3850 c3         1 5OZ      -0.083100
      6 H2           1.2590     0.0000     2.1280 hc         1 5OZ       0.077700
      7 H3           1.7490     0.0000    -0.9380 h4         1 5OZ      -0.005800
      8 H5           3.3510    -1.2710     2.3410 hc         1 5OZ       0.040033
      9 H6           2.2240    -2.1330     1.2850 hc         1 5OZ       0.040033
     10 H7           3.5740    -1.2280     0.5870 hc         1 5OZ       0.040033
     11 H8           3.3510     1.2710     2.3410 hc         1 5OZ       0.040033
     12 H9           3.5740     1.2280     0.5870 hc         1 5OZ       0.040033
     13 H10          2.2240     2.1330     1.2850 hc         1 5OZ       0.040033
@<TRIPOS>BOND
     1     5     2 1   
     2     1     3 2   
     3     2     3 1   
     4     2     4 1   
     5     2     6 1   
     6     3     7 1   
     7     4     8 1   
     8     4     9 1   
     9     4    10 1   
    10     5    11 1   
    11     5    12 1   
    12     5    13 1   
@<TRIPOS>SUBSTRUCTURE
     1 5OZ         1 TEMP              0 ****  ****    0 ROOT
