@<TRIPOS>MOLECULE
molecule
   30    32     1     0     0
SMALL
bcc


@<TRIPOS>ATOM
      1 O01          0.0000     0.0000     0.0000 oh         1 5P1      -0.523100
      2 C02          1.3590     0.0000     0.0000 ca         1 5P1       0.118100
      3 C03          2.0520     0.0000     1.2030 ca         1 5P1      -0.157000
      4 C04          3.4310    -0.0010     1.2050 ca         1 5P1      -0.084500
      5 C05          4.1290    -0.0020    -0.0010 ca         1 5P1      -0.044800
      6 C06          5.6120    -0.0030    -0.0020 cc         1 5P1       0.209400
      7 N07          6.3990     0.7450    -0.7900 nc         1 5P1      -0.303600
      8 C08          7.6690     0.4820    -0.5130 cd         1 5P1      -0.001300
      9 C09          8.8750     0.9810    -1.0450 cd         1 5P1      -0.079000
     10 C10         10.0600     0.5180    -0.5650 cc         1 5P1      -0.141000
     11 C11         10.0680    -0.4510     0.4550 cc         1 5P1       0.083100
     12 O12         11.2510    -0.9180     0.9390 oh         1 5P1      -0.504100
     13 C13          8.9020    -0.9210     0.9570 cd         1 5P1      -0.109300
     14 N14          7.7050    -0.4620     0.4810 na         1 5P1       0.081700
     15 C15          6.4110    -0.7600     0.8030 cd         1 5P1      -0.306300
     16 C16          5.9530    -1.7470     1.8460 c3         1 5P1       0.714100
     17 F17          5.6890    -1.0720     3.0430 f          1 5P1      -0.217967
     18 F18          4.7880    -2.3850     1.4050 f          1 5P1      -0.217967
     19 F19          6.9550    -2.7000     2.0580 f          1 5P1      -0.217967
     20 C20          3.4300    -0.0020    -1.2060 ca         1 5P1      -0.084500
     21 C21          2.0510    -0.0060    -1.2030 ca         1 5P1      -0.157000
     22 H1          -0.3140    -0.8890    -0.0130 ho         1 5P1       0.421000
     23 H2           1.5090     0.0010     2.1400 ha         1 5P1       0.144500
     24 H3           3.9710    -0.0010     2.1450 ha         1 5P1       0.146000
     25 H4           8.8580     1.7270    -1.8300 ha         1 5P1       0.170000
     26 H5          10.9900     0.9680    -0.8930 ha         1 5P1       0.158000
     27 H6          11.5690    -1.6080     0.3810 ho         1 5P1       0.426000
     28 H7           8.9160    -1.6670     1.7420 h4         1 5P1       0.188000
     29 H8           3.9700    -0.0050    -2.1460 ha         1 5P1       0.146000
     30 H9           1.5070    -0.0060    -2.1400 ha         1 5P1       0.144500
@<TRIPOS>BOND
     1    12    11 1
     2    10    11 1
     3    10     9 2
     4    11    13 2
     5     9     8 1
     6    13    14 1
     7     8    14 1
     8     8     7 2
     9    14    15 1
    10    19    16 1
    11     7     6 1
    12    15    16 1
    13    15     6 2
    14    16    17 1
    15    16    18 1
    16     6     5 1
    17    20     5 ar
    18    20    21 ar
    19     5     4 ar
    20    21     2 ar
    21     4     3 ar
    22     2     3 ar
    23     2     1 1
    24     1    22 1
    25     3    23 1
    26     4    24 1
    27     9    25 1
    28    10    26 1
    29    12    27 1
    30    13    28 1
    31    20    29 1
    32    21    30 1
@<TRIPOS>SUBSTRUCTURE
     1 5P1         1 TEMP              0 ****  ****    0 ROOT
