@<TRIPOS>MOLECULE
molecule
   59    63     1     0     0
SMALL
bcc


@<TRIPOS>ATOM
      1 C4           0.0000     0.0000     0.0000 cy         1 5P2       0.048800
      2 C14          2.5820     1.7380    -3.8680 ca         1 5P2      -0.404300
      3 C5           1.5390     0.0000     0.0000 cy         1 5P2       0.037000
      4 C6           1.4420     0.0000     1.5360 cy         1 5P2       0.048800
      5 C8           2.8720    -1.3100    -1.6930 cc         1 5P2      -0.027300
      6 C9           3.2250    -2.6220    -1.8470 cd         1 5P2      -0.324300
      7 C10          2.6890    -3.3380    -0.7760 cd         1 5P2       0.322200
      8 C12          3.2270    -0.1950    -2.5970 ca         1 5P2      -0.131000
      9 C13          2.2460     0.7000    -3.0230 ca         1 5P2       0.076000
     10 N3           0.0990    -0.5930     1.3520 nq         1 5P2      -0.578600
     11 C2          -0.8750     0.0140     2.2670 c3         1 5P2       0.083800
     12 N7           2.1290    -1.2210    -0.5540 na         1 5P2       0.093400
     13 N11          2.0380    -2.5060    -0.0020 nc         1 5P2      -0.476800
     14 C15          3.8900     1.8950    -4.2950 ca         1 5P2       0.083000
     15 C16          4.8700     1.0130    -3.8790 ca         1 5P2      -0.401000
     16 C17          4.5480    -0.0340    -3.0310 ca         1 5P2       0.301100
     17 O18          5.5100    -0.9010    -2.6220 os         1 5P2      -0.216200
     18 C19          6.7940    -0.6420    -2.9780 ca         1 5P2       0.187100
     19 C20          7.3530    -1.2780    -4.0770 ca         1 5P2      -0.155000
     20 C21          8.6600    -1.0130    -4.4390 ca         1 5P2       0.000000
     21 C22          9.4200    -0.1130    -3.7110 ca         1 5P2      -0.362500
     22 C23          8.8800     0.5280    -2.6160 ca         1 5P2       0.015000
     23 C24          7.5590     0.2740    -2.2430 ca         1 5P2      -0.038000
     24 C25          6.9890     0.9420    -1.1110 cg         1 5P2       0.222800
     25 N26          6.5250     1.4820    -0.2250 n1         1 5P2      -0.313800
     26 S27         11.0850     0.2130    -4.1860 sy         1 5P2       1.361200
     27 O28         11.7480     0.6870    -3.0220 o          1 5P2      -0.581800
     28 O29         11.5220    -0.9210    -4.9230 o          1 5P2      -0.581800
     29 N30         11.0510     1.4790    -5.2530 nu         1 5P2      -0.708800
     30 C31         10.6320     2.7270    -4.8310 cc         1 5P2       0.606300
     31 N32         10.5470     3.8290    -5.5480 nd         1 5P2      -0.730000
     32 C33         10.1190     4.9050    -4.9300 cd         1 5P2       0.614900
     33 N34          9.8130     4.8020    -3.6680 nc         1 5P2      -0.479100
     34 S35         10.0990     3.1790    -3.2560 ss         1 5P2       0.002700
     35 F37          3.9890     3.2250    -3.4500 f          1 5P2      -0.193300
     36 F38          1.8370     3.6890    -2.8570 f          1 5P2      -0.193300
     37 F39          3.3820     1.9830    -1.7350 f          1 5P2      -0.193300
     38 H1          -0.4170    -0.9080    -0.4180 h1         1 5P2       0.086700
     39 H2          -0.4170     0.9090    -0.4170 h1         1 5P2       0.086700
     40 H3           1.9580     0.9180    -0.3940 h1         1 5P2       0.087700
     41 H4           1.8330    -0.9080     1.9780 h1         1 5P2       0.086700
     42 H5           1.8320     0.9090     1.9780 h1         1 5P2       0.086700
     43 H6           3.7940    -3.0360    -2.6710 ha         1 5P2       0.153000
     44 H7           2.7900    -4.4030    -0.6080 h4         1 5P2       0.048100
     45 H8           1.2220     0.5810    -2.6920 ha         1 5P2       0.171000
     46 H10         -2.5810    -1.1350     3.4910 hc         1 5P2       0.035367
     47 H11         -1.3550    -2.2510     2.8740 hc         1 5P2       0.035367
     48 H12         -2.5820    -1.5920     1.7830 hc         1 5P2       0.035367
     49 H13         -0.3880     0.3760     3.1640 h1         1 5P2       0.045700
     50 H14         -1.4240     0.8070     1.7750 h1         1 5P2       0.045700
     51 H15          4.1490     2.7120    -4.9580 ha         1 5P2       0.157000
     52 H16          5.8920     1.1410    -4.2160 ha         1 5P2       0.150000
     53 H17          6.7900    -2.0350    -4.6100 ha         1 5P2       0.168000
     54 H18          9.0960    -1.5110    -5.2970 ha         1 5P2       0.168000
     55 H19          9.4790     1.2320    -2.0510 ha         1 5P2       0.177000
     56 H20         10.1920     1.7340    -5.6990 hn         1 5P2       0.462800
     57 H21          9.9930     5.8850    -5.3750 h5         1 5P2       0.094100
     58 C36          2.9740     2.6890    -3.0110 c3         1 5P2       0.672200
     59 C1          -1.9560    -1.3800     2.6410 c3         1 5P2      -0.068100
@<TRIPOS>BOND
     1     1     3 1
     2     1    10 1
     3     2     9 ar
     4     2    14 ar
     5     2    58 1
     6     3     4 1
     7     3    12 1
     8     4    10 1
     9     5     6 2
    10     5     8 1
    11     5    12 1
    12     6     7 1
    13     7    13 2
    14     8     9 ar
    15     8    16 ar
    16    10    11 1
    17    59    11 1
    18    12    13 1
    19    14    15 ar
    20    15    16 ar
    21    16    17 1
    22    17    18 1
    23    18    19 ar
    24    18    23 ar
    25    19    20 ar
    26    20    21 ar
    27    21    22 ar
    28    21    26 1
    29    22    23 ar
    30    23    24 1
    31    24    25 3
    32    26    27 2
    33    26    28 2
    34    26    29 1
    35    29    30 1
    36    30    31 2
    37    30    34 1
    38    31    32 1
    39    32    33 2
    40    33    34 1
    41    58    35 1
    42    58    36 1
    43    58    37 1
    44     1    38 1
    45     1    39 1
    46     3    40 1
    47     4    41 1
    48     4    42 1
    49     6    43 1
    50     7    44 1
    51     9    45 1
    52    59    46 1
    53    59    47 1
    54    59    48 1
    55    11    49 1
    56    11    50 1
    57    14    51 1
    58    15    52 1
    59    19    53 1
    60    20    54 1
    61    22    55 1
    62    29    56 1
    63    32    57 1
@<TRIPOS>SUBSTRUCTURE
     1 5P2         1 TEMP              0 ****  ****    0 ROOT
