@<TRIPOS>MOLECULE
5P2
   59    65     1     0     0
SMALL
bcc


@<TRIPOS>ATOM
      1 C4           0.0000     0.0000     0.0000 cy         1 5P2      -0.155500
      2 C14          2.5820     1.7380    -3.8680 cu         1 5P2      -0.407000
      3 C5           1.5390     0.0000     0.0000 cy         1 5P2      -0.124000
      4 C6           1.4420     0.0000     1.5360 cy         1 5P2      -0.155500
      5 C8           2.8720    -1.3100    -1.6930 c2         1 5P2      -0.166000
      6 C9           3.2250    -2.6220    -1.8470 c2         1 5P2      -0.247000
      7 C10          2.6890    -3.3380    -0.7760 c2         1 5P2      -0.081000
      8 C12          3.2270    -0.1950    -2.5970 c2         1 5P2      -0.113000
      9 C13          2.2460     0.7000    -3.0230 c2         1 5P2       0.104000
     10 N3           0.0990    -0.5930     1.3520 nq         1 5P2      -0.017000
     11 C2          -0.8750     0.0140     2.2670 c3         1 5P2      -0.111000
     12 N7           2.1290    -1.2210    -0.5540 na         1 5P2       0.326000
     13 N11          2.0380    -2.5060    -0.0020 n2         1 5P2      -0.184000
     14 C15          3.8900     1.8950    -4.2950 DU         1 5P2       0.094000
     15 C16          4.8700     1.0130    -3.8790 c2         1 5P2      -0.375000
     16 C17          4.5480    -0.0340    -3.0310 c2         1 5P2       0.264000
     17 O18          5.5100    -0.9010    -2.6220 os         1 5P2      -0.102000
     18 C19          6.7940    -0.6420    -2.9780 ca         1 5P2       0.132000
     19 C20          7.3530    -1.2780    -4.0770 ca         1 5P2      -0.142000
     20 C21          8.6600    -1.0130    -4.4390 ca         1 5P2       0.040000
     21 C22          9.4200    -0.1130    -3.7110 ca         1 5P2      -0.666000
     22 C23          8.8800     0.5280    -2.6160 ca         1 5P2       0.037000
     23 C24          7.5590     0.2740    -2.2430 ca         1 5P2       0.002000
     24 C25          6.9890     0.9420    -1.1110 c1         1 5P2      -0.122000
     25 N26          6.5250     1.4820    -0.2250 n1         1 5P2      -0.004000
     26 S27         11.0850     0.2130    -4.1860 s6         1 5P2       2.368000
     27 O28         11.7480     0.6870    -3.0220 o          1 5P2      -0.824500
     28 O29         11.5220    -0.9210    -4.9230 o          1 5P2      -0.824500
     29 N30         11.0510     1.4790    -5.2530 nu         1 5P2      -0.381000
     30 C31         10.6320     2.7270    -4.8310 c2         1 5P2      -0.202000
     31 N32         10.5470     3.8290    -5.5480 n2         1 5P2      -0.115000
     32 C33         10.1190     4.9050    -4.9300 c2         1 5P2      -0.041000
     33 N34          9.8130     4.8020    -3.6680 n2         1 5P2      -0.208000
     34 S35         10.0990     3.1790    -3.2560 ss         1 5P2       0.267000
     35 F37          3.9890     3.2250    -3.4500 f          1 5P2      -0.008000
     36 F38          1.8370     3.6890    -2.8570 f          1 5P2      -0.202000
     37 F39          3.3820     1.9830    -1.7350 f          1 5P2      -0.202000
     38 H1          -0.4170    -0.9080    -0.4180 h1         1 5P2       0.097000
     39 H2          -0.4170     0.9090    -0.4170 h1         1 5P2       0.097000
     40 H3           1.9580     0.9180    -0.3940 h1         1 5P2       0.109000
     41 H4           1.8330    -0.9080     1.9780 h1         1 5P2       0.097000
     42 H5           1.8320     0.9090     1.9780 h1         1 5P2       0.097000
     43 H6           3.7940    -3.0360    -2.6710 ha         1 5P2       0.133000
     44 H7           2.7900    -4.4030    -0.6080 h4         1 5P2       0.141000
     45 H8           1.2220     0.5810    -2.6920 ha         1 5P2       0.134000
     46 H10         -2.5810    -1.1350     3.4910 hc         1 5P2       0.037000
     47 H11         -1.3550    -2.2510     2.8740 hc         1 5P2       0.037000
     48 H12         -2.5820    -1.5920     1.7830 hc         1 5P2       0.037000
     49 H13         -0.3880     0.3760     3.1640 h1         1 5P2       0.054500
     50 H14         -1.4240     0.8070     1.7750 h1         1 5P2       0.054500
     51 H15          4.1490     2.7120    -4.9580 ha         1 5P2       0.132000
     52 H16          5.8920     1.1410    -4.2160 ha         1 5P2       0.139000
     53 H17          6.7900    -2.0350    -4.6100 ha         1 5P2       0.135000
     54 H18          9.0960    -1.5110    -5.2970 ha         1 5P2       0.134000
     55 H19          9.4790     1.2320    -2.0510 ha         1 5P2       0.160000
     56 H20         10.1920     1.7340    -5.6990 hn         1 5P2       0.170000
     57 H21          9.9930     5.8850    -5.3750 h5         1 5P2       0.164000
     58 C36          2.9740     2.6890    -3.0110 DU         1 5P2       0.471000
     59 C1          -1.9560    -1.3800     2.6410 c3         1 5P2      -0.082000
@<TRIPOS>BOND
     1     1     3 1   
     2     1    10 1   
     3     1    38 1   
     4     1    39 1   
     5     2     9 1   
     6     2    14 1   
     7     2    58 1   
     8     3     4 1   
     9     3    12 1   
    10     3    40 1   
    11     4    10 1   
    12     4    41 1   
    13     4    42 1   
    14     5     6 1   
    15     5     8 1   
    16     5    12 1   
    17     6     7 1   
    18     6    43 1   
    19     7    13 1   
    20     7    44 1   
    21     8     9 1   
    22     8    16 1   
    23     9    45 1   
    24    10    11 1   
    25    11    49 1   
    26    11    50 1   
    27    11    59 1   
    28    12    13 1   
    29    14    15 1   
    30    14    35 1   
    31    14    51 1   
    32    14    58 1   
    33    15    16 1   
    34    15    52 1   
    35    16    17 1   
    36    17    18 1   
    37    18    19 1   
    38    18    23 1   
    39    19    20 1   
    40    19    53 1   
    41    20    21 1   
    42    20    54 1   
    43    21    22 1   
    44    21    26 1   
    45    22    23 1   
    46    22    55 1   
    47    23    24 1   
    48    24    25 1   
    49    26    27 1   
    50    26    28 1   
    51    26    29 1   
    52    29    30 1   
    53    29    56 1   
    54    30    31 1   
    55    30    34 1   
    56    31    32 1   
    57    32    33 1   
    58    32    57 1   
    59    33    34 1   
    60    35    58 1   
    61    36    58 1   
    62    37    58 1   
    63    46    59 1   
    64    47    59 1   
    65    48    59 1   
@<TRIPOS>SUBSTRUCTURE
     1 5P2         1 TEMP              0 ****  ****    0 ROOT
