@<TRIPOS>MOLECULE
5P3
   25    26     1     0     0
SMALL
bcc


@<TRIPOS>ATOM
      1 C1         -0.0210   -0.2550    0.1090 ca        1 5P3     -0.220600
      2 C2          1.3710   -0.2470    0.1050 ca        1 5P3     -0.045000
      3 C3          2.1100    0.0240    1.2670 cp        1 5P3     -0.128000
      4 C4          1.4250    0.2920    2.4570 ca        1 5P3     -0.090000
      5 C5          0.0310    0.2880    2.4850 ca        1 5P3     -0.060600
      6 C6         -0.7100    0.0140    1.3120 ca        1 5P3      0.207100
      7 C7         -0.7360   -0.5500   -1.2000 c         1 5P3      0.919200
      8 O8         -2.0050   -0.5980   -1.2000 o         1 5P3     -0.825800
      9 O9         -0.0350   -0.7320   -2.2310 o         1 5P3     -0.825800
     10 O10        -2.0680    0.0260    1.4190 oh        1 5P3     -0.532100
     11 CL11       -0.7380    0.6280    3.9750 cl        1 5P3     -0.131400
     12 C12         3.5690    0.0320    1.2360 cp        1 5P3      0.010000
     13 C13         4.3140   -0.4330    2.3310 ca        1 5P3     -0.130500
     14 C14         5.7070   -0.4180    2.2980 ca        1 5P3     -0.135000
     15 C15         6.3770    0.0570    1.1720 ca        1 5P3     -0.153000
     16 C16         5.6460    0.5170    0.0770 ca        1 5P3     -0.135000
     17 C17         4.2540    0.5060    0.1060 ca        1 5P3     -0.130500
     18 H2          1.8810   -0.4700   -0.8490 ha        1 5P3      0.162000
     19 H4          1.9870    0.5170    3.3760 ha        1 5P3      0.126000
     20 HO10       -2.4630   -0.1840    0.5420 ho        1 5P3      0.490000
     21 H13         3.7910   -0.8200    3.2180 ha        1 5P3      0.139000
     22 H14         6.2770   -0.7870    3.1620 ha        1 5P3      0.118000
     23 H15         7.4750    0.0670    1.1460 ha        1 5P3      0.115000
     24 H16         6.1700    0.8900   -0.8150 ha        1 5P3      0.118000
     25 H17         3.6810    0.8710   -0.7610 ha        1 5P3      0.139000
@<TRIPOS>BOND
     1    1    2 ar  
     2    1    6 ar  
     3    1    7 1   
     4    2    3 ar  
     5    2   18 1   
     6    3    4 ar  
     7    3   12 1   
     8    4    5 ar  
     9    4   19 1   
    10    5    6 ar  
    11    5   11 1   
    12    6   10 1   
    13    7    8 1   
    14    7    9 1   
    15   10   20 1   
    16   12   13 ar  
    17   12   17 ar  
    18   13   14 ar  
    19   13   21 1   
    20   14   15 ar  
    21   14   22 1   
    22   15   16 ar  
    23   15   23 1   
    24   16   17 ar  
    25   16   24 1   
    26   17   25 1   
@<TRIPOS>SUBSTRUCTURE
     1 5P3         1 TEMP              0 ****  ****    0 ROOT
