@<TRIPOS>MOLECULE
molecule
   25    26     1     0     0
SMALL
bcc


@<TRIPOS>ATOM
      1 C1           0.0000     0.0000     0.0000 ca         1 5P3      -0.114600
      2 C2           1.3960     0.0000     0.0000 ca         1 5P3      -0.054000
      3 C3           2.0860     0.0000     1.2070 cp         1 5P3      -0.095000
      4 C4           1.3850     0.0000     2.4130 ca         1 5P3      -0.114000
      5 C5           0.0050     0.0000     2.4170 ca         1 5P3      -0.054600
      6 C6          -0.6960     0.0010     1.2170 ca         1 5P3       0.153100
      7 C7          -0.7400     0.0060    -1.2750 c          1 5P3       0.882200
      8 O8          -1.9540     0.0120    -1.2730 o          1 5P3      -0.822800
      9 O9          -0.0680     0.0060    -2.4440 o          1 5P3      -0.822800
     10 O10         -2.0520     0.0070     1.2240 oh         1 5P3      -0.465100
     11 Cl11        -0.8570     0.0010     3.9230 cl         1 5P3      -0.152400
     12 C12          3.5690    -0.0010     1.2110 cp         1 5P3       0.019000
     13 C13          4.2650    -0.0010     2.4190 ca         1 5P3      -0.126000
     14 C14          5.6450    -0.0020     2.4180 ca         1 5P3      -0.142500
     15 C15          6.3380    -0.0020     1.2200 ca         1 5P3      -0.152000
     16 C16          5.6530    -0.0020     0.0190 ca         1 5P3      -0.142500
     17 C17          4.2720    -0.0080     0.0080 ca         1 5P3      -0.126000
     18 H2           1.9390    -0.0000    -0.9370 ha         1 5P3       0.167000
     19 H4           1.9260    -0.0000     3.3520 ha         1 5P3       0.124000
     20 HO10        -2.3680    -0.7600     1.6720 ho         1 5P3       0.406000
     21 H13          3.7240    -0.0650     3.3550 ha         1 5P3       0.142000
     22 H14          6.1870    -0.0020     3.3560 ha         1 5P3       0.118000
     23 H15          7.4210    -0.0020     1.2240 ha         1 5P3       0.112000
     24 H16          6.2010     0.0030    -0.9150 ha         1 5P3       0.118000
     25 H17          4.0520    -0.0290    -1.0520 ha         1 5P3       0.142000
@<TRIPOS>BOND
     1     2     1 ar  
     2     1     6 ar  
     3     1     7 1   
     4     3     2 ar  
     5     2    18 1   
     6    12     3 1   
     7     3     4 ar  
     8     4     5 ar  
     9     4    19 1   
    10     5     6 ar  
    11     5    11 1   
    12     6    10 1   
    13     8     7 1   
    14     7     9 1   
    15    10    20 1   
    16    13    12 ar  
    17    17    12 ar  
    18    14    13 ar  
    19    13    21 1   
    20    15    14 ar  
    21    14    22 1   
    22    15    16 ar  
    23    15    23 1   
    24    16    17 ar  
    25    16    24 1   
    26    17    25 1   
@<TRIPOS>SUBSTRUCTURE
     1 5P3         1 TEMP              0 ****  ****    0 ROOT
