@<TRIPOS>MOLECULE
molecule
   64    64     1     0     0
SMALL
bcc


@<TRIPOS>ATOM
      1 C1           0.0000     0.0000     0.0000 c3         1 5P5       0.214100
      2 O1          -0.4770     0.0010    -1.3470 os         1 5P5      -0.601200
      3 P1          -1.4060     1.1700    -1.9470 p5         1 5P5       1.353800
      4 C2           1.5300     0.0000     0.0000 c3         1 5P5       0.118100
      5 O2           2.0060    -1.1660    -0.6750 oh         1 5P5      -0.590800
      6 C3           2.0400     0.0000     1.4410 c3         1 5P5       0.104100
      7 O3           3.4690    -0.0000     1.4410 oh         1 5P5      -0.627800
      8 C4           1.5310    -1.2500     2.1620 c3         1 5P5       0.130100
      9 O4           2.0080    -1.2500     3.5100 oh         1 5P5      -0.561800
     10 C5           0.0010    -1.2510     2.1640 c3         1 5P5       0.224100
     11 O5          -0.4740    -2.4180     2.8360 os         1 5P5      -0.563200
     12 P5          -1.4030    -2.3560     4.1500 p5         1 5P5       1.185900
     13 C6          -0.5090    -1.2500     0.7210 c3         1 5P5       0.126100
     14 O6          -1.9380    -1.2500     0.7210 oh         1 5P5      -0.530800
     15 C7          -2.7750     1.5670    -4.2070 c3         1 5P5       0.239400
     16 C8          -2.9860     0.9170    -5.5770 c3         1 5P5       0.137100
     17 C9          -4.0590     1.6880    -6.3480 c3         1 5P5       0.121400
     18 C10         -5.2700     1.5540    -8.3960 c          1 5P5       0.630100
     19 C11         -5.6170     0.9010    -9.7080 c3         1 5P5      -0.128400
     20 O11         -0.5780     2.5500    -1.9790 o          1 5P5      -0.820000
     21 C12         -6.6920     1.7240   -10.4200 c3         1 5P5      -0.074400
     22 O12         -2.6060     1.3340    -1.0960 o          1 5P5      -0.820000
     23 C13         -7.0450     1.0600   -11.7530 c3         1 5P5      -0.094100
     24 O13         -1.8590     0.7810    -3.4420 os         1 5P5      -0.590200
     25 O14         -1.7410     0.9450    -6.3220 os         1 5P5      -0.398900
     26 C15         -0.2620    -0.0860    -8.0100 c3         1 5P5      -0.127400
     27 O15         -4.3430     1.0040    -7.5960 os         1 5P5      -0.409900
     28 C16         -0.2780    -1.3110    -8.9270 c3         1 5P5      -0.073400
     29 O16         -5.8250     2.5750    -8.0640 o          1 5P5      -0.569000
     30 C17          1.0120    -1.3490    -9.7480 c3         1 5P5      -0.095100
     31 O17         -2.3660    -0.9140    -7.3410 o          1 5P5      -0.560000
     32 O51         -0.7350    -1.5370     5.1870 o          1 5P5      -0.913167
     33 O52         -2.8210    -1.6940     3.7740 o          1 5P5      -0.913167
     34 O53         -1.6370    -3.8460     4.7120 o          1 5P5      -0.913167
     35 H1          -0.3590     0.8830     0.5150 h1         1 5P5       0.070700
     36 H2           1.8880     0.8880    -0.5070 h1         1 5P5       0.028700
     37 HO2          2.5560    -0.9090    -1.3960 ho         1 5P5       0.373000
     38 H3           1.6750     0.8830     1.9520 h1         1 5P5       0.053700
     39 HO3          3.7840     0.8370     1.7400 ho         1 5P5       0.374000
     40 H4           1.8900    -2.1330     1.6470 h1         1 5P5       0.039700
     41 HO4          2.6770    -1.9080     3.6060 ho         1 5P5       0.371000
     42 H5          -0.3580    -0.3640     2.6720 h1         1 5P5       0.067700
     43 H6          -0.1440    -2.1330     0.2110 h1         1 5P5       0.030700
     44 HO6         -2.2530    -2.0210     0.2790 ho         1 5P5       0.381000
     45 H7          -2.3730     2.5640    -4.3390 h1         1 5P5       0.044200
     46 H7A         -3.7230     1.6250    -3.6860 h1         1 5P5       0.044200
     47 H8          -3.3040    -0.1100    -5.4440 h1         1 5P5       0.093700
     48 H9          -3.7040     2.6900    -6.5580 h1         1 5P5       0.060200
     49 H9A         -4.9630     1.7420    -5.7520 h1         1 5P5       0.060200
     50 H11         -5.9910    -0.1000    -9.5260 hc         1 5P5       0.069200
     51 H11A        -4.7320     0.8470   -10.3310 hc         1 5P5       0.069200
     52 H12         -7.5770     1.7780    -9.7980 hc         1 5P5       0.055200
     53 H13         -6.1600     1.0080   -12.3760 hc         1 5P5       0.028700
     54 H13A        -7.4180     0.0600   -11.5700 hc         1 5P5       0.028700
     55 H15          0.5900    -0.1440    -7.3440 hc         1 5P5       0.068200
     56 H15A        -0.1910     0.8130    -8.6100 hc         1 5P5       0.068200
     57 H16         -1.1290    -1.2530    -9.5940 hc         1 5P5       0.054700
     58 H17          1.0850    -0.4500   -10.3470 hc         1 5P5       0.027033
     59 H17A         1.0010    -2.2160   -10.3980 hc         1 5P5       0.027033
     60 H12A        -6.3180     2.7240   -10.6030 hc         1 5P5       0.055200
     61 H13B        -7.8070     1.6440   -12.2560 hc         1 5P5       0.028700
     62 H16A        -0.3500    -2.2100    -8.3270 hc         1 5P5       0.054700
     63 H17B         1.8630    -1.4090    -9.0810 hc         1 5P5       0.027033
     64 C14         -1.5330    -0.0500    -7.2000 c          1 5P5       0.636100
@<TRIPOS>BOND
     1    13     1 1   
     2     1     2 1   
     3     1     4 1   
     4     1    35 1   
     5     2     3 1   
     6    24     3 1   
     7     3    22 1   
     8     3    20 1   
     9     6     4 1   
    10     5     4 1   
    11     4    36 1   
    12     5    37 1   
    13     8     6 1   
    14     6     7 1   
    15     6    38 1   
    16     7    39 1   
    17    10     8 1   
    18     9     8 1   
    19     8    40 1   
    20     9    41 1   
    21    11    10 1   
    22    10    13 1   
    23    10    42 1   
    24    12    11 1   
    25    32    12 1   
    26    12    34 1   
    27    12    33 1   
    28    14    13 1   
    29    13    43 1   
    30    14    44 1   
    31    16    15 1   
    32    15    24 1   
    33    15    45 1   
    34    15    46 1   
    35    17    16 1   
    36    16    25 1   
    37    16    47 1   
    38    27    17 1   
    39    17    48 1   
    40    17    49 1   
    41    29    18 2   
    42    18    19 1   
    43    18    27 1   
    44    21    19 1   
    45    19    50 1   
    46    19    51 1   
    47    21    23 1   
    48    21    52 1   
    49    23    53 1   
    50    23    54 1   
    51    31    64 2   
    52    25    64 1   
    53    64    26 1   
    54    26    28 1   
    55    26    55 1   
    56    26    56 1   
    57    30    28 1   
    58    28    57 1   
    59    30    58 1   
    60    30    59 1   
    61    21    60 1   
    62    23    61 1   
    63    28    62 1   
    64    30    63 1   
@<TRIPOS>SUBSTRUCTURE
     1 5P5         1 TEMP              0 ****  ****    0 ROOT
