@<TRIPOS>MOLECULE
5P5
   64    58     1     0     0
SMALL
bcc


@<TRIPOS>ATOM
      1 C1         -0.0250   -0.3170    1.4920 c2        1 5P5     -0.303000
      2 O1         -0.9610   -0.8600   -1.7100 oh        1 5P5     -0.809000
      3 P1         -2.1680    0.1250   -1.5040 p3        1 5P5      2.535000
      4 C2          1.4250   -0.2100    1.1250 c3        1 5P5      0.144000
      5 O2          1.5790   -0.5450   -0.2640 oh        1 5P5     -0.397000
      6 C3          2.3260   -1.0180    1.9690 c1        1 5P5     -0.509000
      7 O3          4.8450   -1.9400    1.7740 oh        1 5P5     -0.540000
      8 C4          1.9400   -1.4200    3.1780 c2        1 5P5     -0.118000
      9 O4          2.8040   -2.1160    4.0250 oh        1 5P5     -0.309000
     10 C5          0.5760   -1.1890    3.7870 c3        1 5P5      0.104000
     11 O5          0.1290   -2.3520    4.4380 os        1 5P5     -0.760000
     12 P5         -0.3710   -2.2050    6.0030 p5        1 5P5      1.906000
     13 C6         -0.4020   -0.7560    2.7110 c2        1 5P5      0.067000
     14 O6         -1.7410   -0.7730    3.0250 oh        1 5P5     -0.311000
     15 C7         -2.8990    1.4610   -4.6050 c3        1 5P5      0.007000
     16 C8         -3.4050    0.9170   -5.9440 c3        1 5P5     -0.081000
     17 C9         -4.4110    1.8510   -6.6030 c2        1 5P5      0.163000
     18 C10        -4.3290    2.7170  -10.8860 c2        1 5P5      0.176000
     19 C11        -3.9370    2.3540  -12.1440 c2        1 5P5     -0.635000
     20 O11        -1.7840    1.4970   -1.2420 o         1 5P5     -1.043500
     21 C12        -6.8060   -0.5240  -13.5260 c2        1 5P5     -0.234000
     22 O12        -3.4680   -0.5280   -1.5690 o         1 5P5     -1.043500
     23 C13        -6.2040   -0.1930  -12.3920 c2        1 5P5     -0.234000
     24 O13        -2.8050    0.4360   -3.6190 oh        1 5P5     -0.431000
     25 O14        -2.2650    0.8230   -6.8110 os        1 5P5     -0.264000
     26 C15        -1.1190   -0.0380   -8.7210 c3        1 5P5     -0.119000
     27 O15        -5.3650    2.2990   -5.9640 o         1 5P5     -0.321000
     28 C16        -1.7080    0.1780  -10.1010 c3        1 5P5     -0.295000
     29 O16        -3.8380    2.3070   -9.7730 o         1 5P5     -0.617000
     30 C17        -0.7320    0.4470  -11.1080 c1        1 5P5     -0.110000
     31 O17        -3.0510   -1.1120   -7.6260 o         1 5P5     -0.372000
     32 O51         1.0420   -1.6570    6.6110 oh        1 5P5     -0.839000
     33 O52        -1.3670   -1.1080    5.9810 o         1 5P5     -0.846500
     34 O53        -0.6250   -3.5450    6.5670 o         1 5P5     -0.846500
     35 H1         -0.1070   -0.6410   -1.3110 ho        1 5P5      0.327000
     36 H2         -0.7610    0.0090    0.7420 ha        1 5P5      0.066000
     37 HO2         1.7220    0.8820    1.1800 h1        1 5P5      0.068000
     38 H3          2.0970   -1.3590   -0.2910 ho        1 5P5      0.214000
     39 HO3         3.9460   -1.5100    1.5850 ho        1 5P5      0.230000
     40 H4          4.7360   -2.1970    2.6910 ho        1 5P5      0.230000
     41 HO4         2.4990   -3.0330    3.9850 ho        1 5P5      0.182000
     42 H5          1.7840   -1.7410    6.0170 ho        1 5P5      0.249000
     43 H6          0.6220   -0.3470    4.5460 h1        1 5P5      0.072000
     44 HO6        -1.8110   -0.9940    3.9800 ho        1 5P5      0.263000
     45 H7         -3.6580   -0.0330   -3.5710 ho        1 5P5      0.264000
     46 H7A        -1.8550    1.8640   -4.7030 h1        1 5P5      0.118000
     47 H8         -3.5980    2.2580   -4.2340 h1        1 5P5      0.118000
     48 H9         -3.8810   -0.0960   -5.8100 h1        1 5P5      0.143000
     49 H9A        -4.2260    2.0780   -7.6830 h4        1 5P5      0.195000
     50 H11        -5.1760    3.4480  -10.8120 h4        1 5P5      0.001000
     51 H11A       -4.4040    2.7770  -13.0330 ha        1 5P5      0.066000
     52 H12        -3.1140    1.6590  -12.3140 ha        1 5P5      0.066000
     53 H13        -6.6460    0.0280  -14.4610 ha        1 5P5      0.114000
     54 H13A       -6.3670   -0.7480  -11.4570 ha        1 5P5      0.114000
     55 H15        -1.5750    3.0630   -8.0460 ha        1 5P5      0.000500
     56 H15A       -0.4960   -0.9690   -8.6970 hc        1 5P5      0.113000
     57 H16        -0.4730    0.8350   -8.4390 hc        1 5P5      0.113000
     58 H17        -2.4470   -0.6360  -10.3370 hc        1 5P5      0.188500
     59 H17A       -1.0990    0.3770  -12.1460 ha        1 5P5      0.031000
     60 H12A       -5.4980    0.6580  -12.2990 ha        1 5P5      0.114000
     61 H13B       -7.5030   -1.3670  -13.6100 ha        1 5P5      0.114000
     62 H16A       -2.0710    2.7360   -8.3740 ha        1 5P5      0.000500
     63 H17B       -2.3640    1.1510  -10.0880 hc        1 5P5      0.188500
     64 C14        -2.2270   -0.2010   -7.7230 c2        1 5P5      0.321000
@<TRIPOS>BOND
     1    1    4 1   
     2    1   13 1   
     3    1   36 1   
     4    2    3 1   
     5    2   35 1   
     6    3   20 1   
     7    3   22 1   
     8    4    5 1   
     9    4    6 1   
    10    4   37 1   
    11    5   38 1   
    12    6    8 1   
    13    7   39 1   
    14    7   40 1   
    15    8    9 1   
    16    8   10 1   
    17    9   41 1   
    18   10   11 1   
    19   10   13 1   
    20   10   43 1   
    21   11   12 1   
    22   12   32 1   
    23   12   33 1   
    24   12   34 1   
    25   13   14 1   
    26   14   44 1   
    27   15   16 1   
    28   15   24 1   
    29   15   46 1   
    30   15   47 1   
    31   16   17 1   
    32   16   25 1   
    33   16   48 1   
    34   17   27 1   
    35   17   49 1   
    36   18   19 1   
    37   18   29 1   
    38   18   50 1   
    39   19   51 1   
    40   19   52 1   
    41   21   23 1   
    42   21   53 1   
    43   21   61 1   
    44   23   54 1   
    45   23   60 1   
    46   24   45 1   
    47   25   64 1   
    48   26   28 1   
    49   26   56 1   
    50   26   57 1   
    51   26   64 1   
    52   28   30 1   
    53   28   58 1   
    54   28   63 1   
    55   30   59 1   
    56   31   64 1   
    57   32   42 1   
    58   55   62 1   
@<TRIPOS>SUBSTRUCTURE
     1 5P5         1 TEMP              0 ****  ****    0 ROOT
