@<TRIPOS>MOLECULE
5P7
   37    39     1     0     0
SMALL
bcc


@<TRIPOS>ATOM
      1 O2           0.0000     0.0000     0.0000 oh         1 5P7      -0.535800
      2 C1           1.4290     0.0000     0.0000 c3         1 5P7       0.163100
      3 C2           1.9690     0.0000     1.4450 c3         1 5P7       0.162100
      4 O1           0.9830     0.5250     2.3360 oh         1 5P7      -0.552800
      5 C3           3.2160     0.9020     1.4480 c3         1 5P7      -0.086700
      6 C5           4.4460     0.0950     1.8680 c3         1 5P7       0.230400
      7 O            5.5730     0.9660     1.9800 oh         1 5P7      -0.590800
      8 C4           3.3910     1.4180     0.0050 c3         1 5P7      -0.022400
      9 C            1.9710     1.3170    -0.6090 c3         1 5P7       0.124500
     10 N            2.0440     1.2230    -2.0690 nu         1 5P7      -0.477900
     11 C6           0.9390     1.5300    -2.8340 ca         1 5P7       0.561200
     12 C9           0.9860     1.4470    -4.2470 ca         1 5P7      -0.322600
     13 C10          2.1410     1.0530    -4.9300 ca         1 5P7      -0.067000
     14 C11          2.1280     0.9900    -6.2930 ca         1 5P7      -0.121000
     15 C12          0.9800     1.3140    -7.0120 ca         1 5P7      -0.074000
     16 C13         -0.1610     1.7020    -6.3760 ca         1 5P7      -0.157300
     17 C8          -0.1820     1.7760    -4.9760 ca         1 5P7       0.441600
     18 N2          -1.2790     2.1510    -4.3010 nb         1 5P7      -0.689000
     19 C7          -1.2660     2.2110    -2.9900 ca         1 5P7       0.686900
     20 N1          -0.2000     1.9080    -2.2660 nb         1 5P7      -0.706000
     21 H2          -0.3140    -0.8880     0.0350 ho         1 5P7       0.377000
     22 H1           1.8140    -0.8530    -0.5450 h1         1 5P7       0.003700
     23 HA           2.2420    -1.0070     1.7370 h1         1 5P7      -0.002300
     24 H            1.3620     2.1580    -0.3010 h1         1 5P7       0.085700
     25 HB           0.9270    -0.0230     3.1020 ho         1 5P7       0.381000
     26 H3           3.0660     1.7360     2.1220 hc         1 5P7       0.061700
     27 H51C         4.6500    -0.6660     1.1250 h1         1 5P7      -0.014300
     28 H52C         4.2580    -0.3770     2.8250 h1         1 5P7      -0.014300
     29 H41C         3.7280     2.4470     0.0100 hc         1 5P7       0.026200
     30 H42C         4.0840     0.7880    -0.5400 hc         1 5P7       0.026200
     31 HC           6.2070     0.5870     2.5650 ho         1 5P7       0.391000
     32 HD           2.8990     0.9530    -2.5120 hn         1 5P7       0.296800
     33 H10          3.0400     0.7980    -4.3820 ha         1 5P7       0.098000
     34 H11          3.0220     0.6850    -6.8230 ha         1 5P7       0.103000
     35 H12          0.9950     1.2570    -8.0930 ha         1 5P7       0.101000
     36 H13         -1.0470     1.9510    -6.9480 ha         1 5P7       0.120000
     37 H7          -2.1710     2.5140    -2.4770 h5         1 5P7      -0.006900
@<TRIPOS>BOND
     1     1     2 1   
     2     1    21 1   
     3     2     3 1   
     4     2     9 1   
     5     2    22 1   
     6     3     4 1   
     7     3     5 1   
     8     3    23 1   
     9     4    25 1   
    10     5     6 1   
    11     5     8 1   
    12     5    26 1   
    13     6     7 1   
    14     6    27 1   
    15     6    28 1   
    16     7    31 1   
    17     8     9 1   
    18     8    29 1   
    19     8    30 1   
    20     9    10 1   
    21     9    24 1   
    22    10    11 1   
    23    10    32 1   
    24    11    12 ar  
    25    11    20 ar  
    26    12    13 ar  
    27    12    17 ar  
    28    13    14 ar  
    29    13    33 1   
    30    14    15 ar  
    31    14    34 1   
    32    15    16 ar  
    33    15    35 1   
    34    16    17 ar  
    35    16    36 1   
    36    17    18 ar  
    37    18    19 ar  
    38    19    20 ar  
    39    19    37 1   
@<TRIPOS>SUBSTRUCTURE
     1 5P7         1 TEMP              0 ****  ****    0 ROOT
