@<TRIPOS>MOLECULE
5P8
   50    53     1     0     0
SMALL
bcc


@<TRIPOS>ATOM
      1 C12        -0.2260    0.1200   -0.0130 ca        1 5P8     -0.083000
      2 C13         1.1430    0.2930   -0.0680 ca        1 5P8     -0.153000
      3 C6         -4.0110   -0.2690    3.6080 ca        1 5P8     -0.089000
      4 C15         1.2190    0.0280    2.3540 ca        1 5P8     -0.182000
      5 C4         -5.1670    1.0180    5.2540 ca        1 5P8      0.485200
      6 C19        -7.1400    1.7890    2.9640 cc        1 5P8     -0.036300
      7 C5         -5.0870    0.5760    3.9060 ca        1 5P8     -0.214300
      8 C18        -5.9390    1.0450    2.8520 cd        1 5P8     -0.068300
      9 C11        -0.8930   -0.1050    1.2130 ca        1 5P8     -0.199600
     10 C10        -0.1800   -0.1290    2.4200 ca        1 5P8      0.017700
     11 C1         -2.9680   -0.4290    4.5120 ca        1 5P8     -0.118200
     12 C14         1.8810    0.2300    1.1360 ca        1 5P8      0.200900
     13 C22        -5.6750    1.0210    1.4170 cd        1 5P8      0.200600
     14 C2         -3.1810   -0.0460    5.8850 ca        1 5P8      0.684200
     15 C27        -2.3070   -0.4840    1.0520 c         1 5P8      0.585700
     16 C28        -4.7200    0.2170    0.6080 c3        1 5P8      0.101500
     17 C8         -0.6870   -0.1770    3.8500 c3        1 5P8      0.169400
     18 C9         -0.8590    1.2580    4.3210 c3        1 5P8     -0.130100
     19 N24        -8.5850    2.3350    5.0220 n1        1 5P8     -0.284800
     20 N3         -4.3050    0.6860    6.2160 nb        1 5P8     -0.707000
     21 N21        -6.6460    1.7470    0.7600 nc        1 5P8     -0.455800
     22 N20        -7.5060    2.1850    1.6570 na        1 5P8      0.160400
     23 N26        -3.2710    0.6450    0.6280 n4        1 5P8     -0.592200
     24 N17        -2.2510   -0.3600    6.8520 nh        1 5P8     -0.936500
     25 O30        -2.7630   -1.6160    1.0710 o         1 5P8     -0.394100
     26 O7         -1.8090   -1.0510    4.0650 os        1 5P8     -0.319900
     27 F16         3.2210    0.3710    1.1100 f         1 5P8     -0.098900
     28 H1         -0.7990    0.1280   -0.9550 ha        1 5P8      0.140000
     29 H2          1.6630    0.4610   -1.0240 ha        1 5P8      0.182000
     30 H3         -3.9940   -0.8510    2.6830 ha        1 5P8      0.141000
     31 H4          1.8200   -0.0070    3.2800 ha        1 5P8      0.176000
     32 H5         -5.9950    1.6710    5.5920 h4        1 5P8      0.045100
     33 H6         -4.7960   -0.8620    0.9420 hx        1 5P8      0.122200
     34 H7         -5.0330    0.2410   -0.4810 hx        1 5P8      0.122200
     35 H8          0.1170   -0.6820    4.4730 h1        1 5P8      0.093700
     36 H9         -1.7630    1.7250    3.8620 hc        1 5P8      0.062367
     37 H10        -0.9560    1.3040    5.4320 hc        1 5P8      0.062367
     38 H11         0.0400    1.8560    4.0310 hc        1 5P8      0.062367
     39 H12        -9.4630    2.7860    2.1140 h1        1 5P8      0.086367
     40 H13        -8.3840    4.0820    1.3810 h1        1 5P8      0.086367
     41 H14        -9.0600    2.7440    0.3240 h1        1 5P8      0.086367
     42 H15        -1.9530    2.1570    1.3600 hx        1 5P8      0.107367
     43 H16        -3.6510    2.7180    0.9280 hx        1 5P8      0.107367
     44 H17        -3.3730    1.7510    2.4560 hx        1 5P8      0.107367
     45 H18        -1.6310   -1.1070    6.6390 hn        1 5P8      0.445800
     46 H19        -2.4820   -0.2100    7.8080 hn        1 5P8      0.445800
     47 C25        -8.6710    2.9960    1.3470 c3        1 5P8      0.019600
     48 C29        -3.0440    1.8920    1.3900 c3        1 5P8      0.085100
     49 H261       -3.0090    0.8420   -0.3490 hn        1 5P8      0.443800
     50 C23        -7.9240    2.0930    4.0960 cg        1 5P8      0.225800
@<TRIPOS>BOND
     1    1    2 ar  
     2    1    9 ar  
     3    1   28 1   
     4    2   12 ar  
     5    2   29 1   
     6    3    7 ar  
     7    3   11 ar  
     8    3   30 1   
     9    4   10 ar  
    10    4   12 ar  
    11    4   31 1   
    12    5    7 ar  
    13    5   20 ar  
    14    5   32 1   
    15    6    8 2   
    16    6   22 1   
    17    6   50 1   
    18    7    8 1   
    19    8   13 1   
    20    9   10 ar  
    21    9   15 1   
    22   10   17 1   
    23   11   14 ar  
    24   11   26 1   
    25   12   27 1   
    26   13   16 1   
    27   13   21 2   
    28   14   20 ar  
    29   14   24 1   
    30   15   23 1   
    31   15   25 2   
    32   16   23 1   
    33   16   33 1   
    34   16   34 1   
    35   17   18 1   
    36   17   26 1   
    37   17   35 1   
    38   18   36 1   
    39   18   37 1   
    40   18   38 1   
    41   19   50 3   
    42   21   22 1   
    43   22   47 1   
    44   23   48 1   
    45   23   49 1   
    46   24   45 1   
    47   24   46 1   
    48   39   47 1   
    49   40   47 1   
    50   41   47 1   
    51   42   48 1   
    52   43   48 1   
    53   44   48 1   
@<TRIPOS>SUBSTRUCTURE
     1 5P8         1 TEMP              0 ****  ****    0 ROOT
