@<TRIPOS>MOLECULE
5PA
   36    37     1     0     0
SMALL
bcc


@<TRIPOS>ATOM
      1 C4           0.0000     0.0000     0.0000 ca         1 5PA      -0.109300
      2 C4A         -0.7720     0.0010    -1.2930 c3         1 5PA       0.186100
      3 P            4.2980     0.0040    -2.4540 p5         1 5PA       0.667900
      4 O1P          3.9090     1.2130    -3.2140 o          1 5PA      -0.764167
      5 O2P          5.8910     0.0050    -2.2240 o          1 5PA      -0.764167
      6 O3P          3.8760    -1.3090    -3.2840 o          1 5PA      -0.764167
      7 O4P          3.5490     0.0030    -1.0300 os         1 5PA      -0.463200
      8 C5A          2.1460     0.0020    -1.3000 c3         1 5PA       0.261700
      9 C5           1.3840     0.0000     0.0000 ca         1 5PA      -0.119600
     10 N1           1.4020    -0.0020     2.3490 nb         1 5PA      -0.618000
     11 C6           2.0600     0.0000     1.2070 ca         1 5PA       0.376200
     12 C2           0.0860    -0.0020     2.3930 ca         1 5PA       0.248600
     13 C2A         -0.6170    -0.0040     3.7270 c3         1 5PA      -0.015400
     14 C3          -0.6610    -0.0070     1.2240 ca         1 5PA      -0.002200
     15 O3          -2.0190    -0.0090     1.2740 oh         1 5PA      -0.473100
     16 N           -1.0230    -1.3830    -1.7150 n7         1 5PA      -0.527200
     17 C8          -1.9510    -1.3160    -2.8530 cx         1 5PA      -0.053800
     18 C7          -3.4150    -1.3840    -2.5020 c          1 5PA       1.005600
     19 O7          -4.2240    -0.7790    -3.1630 o          1 5PA      -0.912300
     20 O8          -3.8200    -2.1210    -1.4550 o          1 5PA      -0.912300
     21 C9          -1.5490    -0.4400    -4.0410 cx         1 5PA      -0.094400
     22 C10         -1.5070    -1.9650    -4.1660 cx         1 5PA      -0.094400
     23 H4A1        -0.1980     0.5130    -2.0560 h1         1 5PA       0.021200
     24 H4A2        -1.7170     0.5120    -1.1490 h1         1 5PA       0.021200
     25 H5A1         1.8880    -0.8820    -1.8710 h1         1 5PA       0.037200
     26 H5A2         1.8870     0.8870    -1.8690 h1         1 5PA       0.037200
     27 H6           3.1430     0.0000     1.2130 h4         1 5PA       0.022100
     28 H2A1        -1.1660     0.9220     3.8470 hc         1 5PA      -0.011300
     29 H2A2         0.1150    -0.0940     4.5210 hc         1 5PA      -0.011300
     30 H2A3        -1.3040    -0.8400     3.7720 hc         1 5PA      -0.011300
     31 HO3         -2.3280     0.8620     1.4590 ho         1 5PA       0.372000
     32 HN          -1.4510    -1.8880    -0.9650 hn         1 5PA       0.281800
     33 H91         -2.3660     0.0480    -4.5590 hc         1 5PA       0.045700
     34 H92         -0.5860     0.0490    -3.9570 hc         1 5PA       0.045700
     35 H101        -2.2970    -2.4080    -4.7590 hc         1 5PA       0.045700
     36 H102        -0.5180    -2.4070    -4.1570 hc         1 5PA       0.045700
@<TRIPOS>BOND
     1     1     2 1   
     2     1     9 ar  
     3     1    14 ar  
     4     2    16 1   
     5     2    23 1   
     6     2    24 1   
     7     3     4 1   
     8     3     5 1   
     9     3     6 1   
    10     3     7 1   
    11     7     8 1   
    12     8     9 1   
    13     8    25 1   
    14     8    26 1   
    15     9    11 ar  
    16    10    11 ar  
    17    10    12 ar  
    18    11    27 1   
    19    12    13 1   
    20    12    14 ar  
    21    13    28 1   
    22    13    29 1   
    23    13    30 1   
    24    14    15 1   
    25    15    31 1   
    26    16    17 1   
    27    16    32 1   
    28    17    18 1   
    29    17    21 1   
    30    17    22 1   
    31    18    19 1   
    32    18    20 1   
    33    21    22 1   
    34    21    33 1   
    35    21    34 1   
    36    22    35 1   
    37    22    36 1   
@<TRIPOS>SUBSTRUCTURE
     1 5PA         1 TEMP              0 ****  ****    0 ROOT
