@<TRIPOS>MOLECULE
5PB
   49    52     1     0     0
SMALL
bcc


@<TRIPOS>ATOM
      1 N1           0.0000     0.0000     0.0000 n2         1 5PB      -0.649300
      2 C2           1.3020     0.0000     0.0000 cc         1 5PB       0.274800
      3 N3           1.7420     0.0000     1.3070 n          1 5PB       0.190500
      4 C4           0.6650     0.0020     2.1160 c          1 5PB       0.534500
      5 N5          -0.4340     0.0010     1.3330 ns         1 5PB       0.093100
      6 O6           0.6790     0.0010     3.3340 o          1 5PB      -0.697500
      7 C8           3.0820    -0.0010     1.7220 ca         1 5PB      -0.163400
      8 C9           3.6080     1.1060     2.3750 ca         1 5PB      -0.022000
      9 C10          4.9270     1.1040     2.7840 ca         1 5PB      -0.174000
     10 C11          5.7270    -0.0040     2.5430 ca         1 5PB       0.175100
     11 C12          5.2020    -1.1090     1.8900 ca         1 5PB      -0.174000
     12 C13          3.8820    -1.1100     1.4850 ca         1 5PB      -0.022000
     13 O18          7.0250    -0.0050     2.9460 os         1 5PB      -0.297900
     14 C19          7.7910    -1.1780     2.6640 c3         1 5PB       0.262700
     15 C20          9.1950    -0.9980     3.1800 ca         1 5PB      -0.116300
     16 C23          9.5120    -1.3810     4.4700 ca         1 5PB      -0.074000
     17 C24         10.7990    -1.2150     4.9440 ca         1 5PB      -0.105000
     18 C25         11.7720    -0.6670     4.1280 ca         1 5PB      -0.089000
     19 C26         11.4540    -0.2840     2.8380 ca         1 5PB      -0.105000
     20 C27         10.1680    -0.4530     2.3630 ca         1 5PB      -0.074000
     21 S33          2.3300    -0.0020    -1.4300 ss         1 5PB      -0.210300
     22 C34          1.0650    -0.0010    -2.7260 c3         1 5PB      -0.015300
     23 C35          1.7310    -0.0030    -4.0780 c          1 5PB       0.642700
     24 O38          2.9410    -0.0040    -4.1570 o          1 5PB      -0.534100
     25 C39          0.9130    -0.0030    -5.3010 ca         1 5PB      -0.190600
     26 C40          1.5280    -0.0040    -6.5570 ca         1 5PB      -0.037000
     27 C41          0.7550    -0.0040    -7.6990 ca         1 5PB      -0.113500
     28 C42         -0.6270    -0.0030    -7.6030 ca         1 5PB      -0.006600
     29 C43         -1.2430    -0.0010    -6.3620 ca         1 5PB      -0.113500
     30 C44         -0.4830    -0.0080    -5.2120 ca         1 5PB      -0.037000
     31 Cl49        -1.5930    -0.0040    -9.0460 cl         1 5PB      -0.013400
     32 HN5         -1.3850     0.0010     1.6460 hn         1 5PB       0.222500
     33 H9           2.9830     1.9710     2.5640 ha         1 5PB       0.114000
     34 H10          5.3360     1.9680     3.2940 ha         1 5PB       0.124500
     35 H12          5.8270    -1.9750     1.7030 ha         1 5PB       0.124500
     36 H13          3.4720    -1.9740     0.9750 ha         1 5PB       0.114000
     37 H19          7.3350    -2.0330     3.1490 h1         1 5PB       0.006200
     38 H19A         7.8180    -1.3430     1.5940 h1         1 5PB       0.006200
     39 H23          8.7510    -1.8100     5.1100 ha         1 5PB       0.107000
     40 H24         11.0470    -1.5150     5.9550 ha         1 5PB       0.104000
     41 H25         12.7810    -0.5360     4.4990 ha         1 5PB       0.103000
     42 H26         12.2160     0.1440     2.1970 ha         1 5PB       0.104000
     43 H27          9.9200    -0.1530     1.3520 ha         1 5PB       0.107000
     44 H34          0.4490     0.8840    -2.6280 h1         1 5PB       0.071200
     45 H34A         0.4460    -0.8850    -2.6270 h1         1 5PB       0.071200
     46 H40          2.6090    -0.0050    -6.6330 ha         1 5PB       0.120500
     47 H41          1.2290    -0.0060    -8.6730 ha         1 5PB       0.120500
     48 H43         -2.3240    -0.0030    -6.2950 ha         1 5PB       0.120500
     49 H44         -0.9660    -0.0060    -4.2420 ha         1 5PB       0.120500
@<TRIPOS>BOND
     1     1     2 2   
     2     1     5 1   
     3     2     3 1   
     4     2    21 1   
     5     3     4 1   
     6     3     7 1   
     7     4     5 1   
     8     4     6 2   
     9     5    32 1   
    10     7     8 ar  
    11     7    12 ar  
    12     8     9 ar  
    13     8    33 1   
    14     9    10 ar  
    15     9    34 1   
    16    10    11 ar  
    17    10    13 1   
    18    11    12 ar  
    19    11    35 1   
    20    12    36 1   
    21    13    14 1   
    22    14    15 1   
    23    14    37 1   
    24    14    38 1   
    25    15    16 ar  
    26    15    20 ar  
    27    16    17 ar  
    28    16    39 1   
    29    17    18 ar  
    30    17    40 1   
    31    18    19 ar  
    32    18    41 1   
    33    19    20 ar  
    34    19    42 1   
    35    20    43 1   
    36    21    22 1   
    37    22    23 1   
    38    22    44 1   
    39    22    45 1   
    40    23    24 2   
    41    23    25 1   
    42    25    26 ar  
    43    25    30 ar  
    44    26    27 ar  
    45    26    46 1   
    46    27    28 ar  
    47    27    47 1   
    48    28    29 ar  
    49    28    31 1   
    50    29    30 ar  
    51    29    48 1   
    52    30    49 1   
@<TRIPOS>SUBSTRUCTURE
     1 5PB         1 TEMP              0 ****  ****    0 ROOT
