@<TRIPOS>MOLECULE
5PD
   43    42     1     0     0
SMALL
bcc


@<TRIPOS>ATOM
      1 C10          0.0000     0.0000     0.0000 c          1 5PD       0.551100
      2 C15          3.5400     1.3250    -0.5940 c3         1 5PD       0.013400
      3 C17          1.3890     2.4940    -0.0920 c3         1 5PD       0.288400
      4 O21          1.4480     5.3030     1.1070 o          1 5PD      -0.675500
      5 P19          1.4110     5.1520    -0.3640 p5         1 5PD       0.708800
      6 O20          2.4120     6.2180    -1.0400 o          1 5PD      -0.675500
      7 O18          1.8650     3.6610    -0.7660 os         1 5PD      -0.495200
      8 C14          2.0170     1.2490    -0.7220 c3         1 5PD      -0.089000
      9 C16          1.6320     1.1760    -2.2010 c3         1 5PD       0.013400
     10 C12          1.5070     0.0000     0.0000 c3         1 5PD       0.135100
     11 O13          1.9830     0.0000     1.3470 oh         1 5PD      -0.538800
     12 O11         -0.6070     0.1530     1.0390 o          1 5PD      -0.621100
     13 N09         -0.6740    -0.1650    -1.1560 ns         1 5PD      -0.236900
     14 C08         -2.1350    -0.0610    -1.1730 c3         1 5PD       0.067000
     15 C07         -2.6460    -0.2870    -2.5970 c3         1 5PD      -0.109400
     16 C02         -4.1490    -0.1800    -2.6150 c          1 5PD       0.578100
     17 O01         -4.7530     0.0540    -1.5890 o          1 5PD      -0.626100
     18 N03         -4.8230    -0.3440    -3.7710 ns         1 5PD      -0.215900
     19 C04         -6.2840    -0.2400    -3.7870 c3         1 5PD       0.075000
     20 C05         -6.7950    -0.4660    -5.2120 c3         1 5PD       0.086700
     21 S06         -8.6040    -0.3380    -5.2330 sh         1 5PD      -0.387900
     22 H1           3.8050     1.5690     0.4280 hc         1 5PD       0.003533
     23 H2           3.9730     0.3690    -0.8610 hc         1 5PD       0.003533
     24 H3           3.9200     2.0920    -1.2580 hc         1 5PD       0.003533
     25 H4           0.3110     2.4390    -0.1830 h1         1 5PD      -0.007300
     26 H5           1.6600     2.5450     0.9550 h1         1 5PD      -0.007300
     27 H7           0.6280     1.5610    -2.3320 hc         1 5PD       0.003533
     28 H8           1.6710     0.1460    -2.5350 hc         1 5PD       0.003533
     29 H9           2.3250     1.7710    -2.7850 hc         1 5PD       0.003533
     30 H10          1.8670    -0.8850    -0.5100 h1         1 5PD      -0.010300
     31 H11          2.0430    -0.8880     1.6590 ho         1 5PD       0.373000
     32 H12         -0.1820    -0.4220    -1.9890 hn         1 5PD       0.181500
     33 H13         -2.4310     0.9250    -0.8350 h1         1 5PD       0.041200
     34 H14         -2.5580    -0.8100    -0.5150 h1         1 5PD       0.041200
     35 H15         -2.3500    -1.2730    -2.9350 hc         1 5PD       0.027200
     36 H16         -2.2230     0.4620    -3.2550 hc         1 5PD       0.027200
     37 H17         -4.3250    -0.5360    -4.6170 hn         1 5PD       0.170500
     38 H18         -6.7070    -0.9890    -3.1290 h1         1 5PD       0.041200
     39 H19         -6.5800     0.7460    -3.4500 h1         1 5PD       0.041200
     40 H20         -6.3730     0.2830    -5.8710 h1         1 5PD       0.030200
     41 H21         -6.4990    -1.4520    -5.5500 h1         1 5PD       0.030200
     42 H22         -9.0490    -0.5540    -6.4650 hs         1 5PD       0.182800
     43 H23          0.1040     5.3800    -0.8260 hp         1 5PD      -0.029400
@<TRIPOS>BOND
     1     1    10 1   
     2     1    12 2   
     3     1    13 1   
     4     2     8 1   
     5     2    22 1   
     6     2    23 1   
     7     2    24 1   
     8     3     7 1   
     9     3     8 1   
    10     3    25 1   
    11     3    26 1   
    12     4     5 1   
    13     5     6 1   
    14     5     7 1   
    15     5    43 1   
    16     8     9 1   
    17     8    10 1   
    18     9    27 1   
    19     9    28 1   
    20     9    29 1   
    21    10    11 1   
    22    10    30 1   
    23    11    31 1   
    24    13    14 1   
    25    13    32 1   
    26    14    15 1   
    27    14    33 1   
    28    14    34 1   
    29    15    16 1   
    30    15    35 1   
    31    15    36 1   
    32    16    17 2   
    33    16    18 1   
    34    18    19 1   
    35    18    37 1   
    36    19    20 1   
    37    19    38 1   
    38    19    39 1   
    39    20    21 1   
    40    20    40 1   
    41    20    41 1   
    42    21    42 1   
@<TRIPOS>SUBSTRUCTURE
     1 5PD         1 TEMP              0 ****  ****    0 ROOT
