@<TRIPOS>MOLECULE
molecule
   43    42     1     0     0
SMALL
bcc


@<TRIPOS>ATOM
      1 C10          0.0000     0.0000     0.0000 c          1 5PD       0.631100
      2 C15          3.5400     1.3250    -0.5940 c3         1 5PD      -0.073600
      3 C17          1.3890     2.4940    -0.0920 c3         1 5PD       0.216400
      4 O21          1.4480     5.3030     1.1070 o          1 5PD      -0.799500
      5 P19          1.4110     5.1520    -0.3640 p5         1 5PD       1.160800
      6 O20          2.4120     6.2180    -1.0400 o          1 5PD      -0.799500
      7 O18          1.8650     3.6610    -0.7660 os         1 5PD      -0.584200
      8 C14          2.0170     1.2490    -0.7220 c3         1 5PD      -0.061000
      9 C16          1.6320     1.1760    -2.2010 c3         1 5PD      -0.073600
     10 C12          1.5070     0.0000     0.0000 c3         1 5PD       0.087100
     11 O13          1.9830     0.0000     1.3470 oh         1 5PD      -0.559800
     12 O11         -0.6070     0.1530     1.0390 o          1 5PD      -0.582100
     13 N09         -0.6740    -0.1650    -1.1560 ns         1 5PD      -0.602900
     14 C08         -2.1350    -0.0610    -1.1730 c3         1 5PD       0.127000
     15 C07         -2.6460    -0.2870    -2.5970 c3         1 5PD      -0.176400
     16 C02         -4.1490    -0.1800    -2.6150 c          1 5PD       0.662100
     17 O01         -4.7530     0.0540    -1.5890 o          1 5PD      -0.591100
     18 N03         -4.8230    -0.3440    -3.7710 ns         1 5PD      -0.595900
     19 C04         -6.2840    -0.2400    -3.7870 c3         1 5PD       0.130000
     20 C05         -6.7950    -0.4660    -5.2120 c3         1 5PD       0.016700
     21 S06         -8.6040    -0.3380    -5.2330 sh         1 5PD      -0.405900
     22 H1           3.8050     1.5690     0.4280 hc         1 5PD       0.036367
     23 H2           3.9730     0.3690    -0.8610 hc         1 5PD       0.036367
     24 H3           3.9200     2.0920    -1.2580 hc         1 5PD       0.036367
     25 H4           0.3110     2.4390    -0.1830 h1         1 5PD       0.038700
     26 H5           1.6600     2.5450     0.9550 h1         1 5PD       0.038700
     27 H7           0.6280     1.5610    -2.3320 hc         1 5PD       0.036367
     28 H8           1.6710     0.1460    -2.5350 hc         1 5PD       0.036367
     29 H9           2.3250     1.7710    -2.7850 hc         1 5PD       0.036367
     30 H10          1.8670    -0.8850    -0.5100 h1         1 5PD       0.027700
     31 H11          2.0430    -0.8880     1.6590 ho         1 5PD       0.393000
     32 H12         -0.1820    -0.4220    -1.9890 hn         1 5PD       0.309500
     33 H13         -2.4310     0.9250    -0.8350 h1         1 5PD       0.070700
     34 H14         -2.5580    -0.8100    -0.5150 h1         1 5PD       0.070700
     35 H15         -2.3500    -1.2730    -2.9350 hc         1 5PD       0.061700
     36 H16         -2.2230     0.4620    -3.2550 hc         1 5PD       0.061700
     37 H17         -4.3250    -0.5360    -4.6170 hn         1 5PD       0.309500
     38 H18         -6.7070    -0.9890    -3.1290 h1         1 5PD       0.069700
     39 H19         -6.5800     0.7460    -3.4500 h1         1 5PD       0.069700
     40 H20         -6.3730     0.2830    -5.8710 h1         1 5PD       0.058200
     41 H21         -6.4990    -1.4520    -5.5500 h1         1 5PD       0.058200
     42 H22         -9.0490    -0.5540    -6.4650 hs         1 5PD       0.214800
     43 H23          0.1040     5.3800    -0.8260 hp         1 5PD      -0.196400
@<TRIPOS>BOND
     1    21    20 1   
     2    20    19 1   
     3    19    18 1   
     4    18    16 1   
     5    16    17 2   
     6    16    15 1   
     7    15    14 1   
     8    14    13 1   
     9    13     1 1   
    10     1    12 2   
    11     1    10 1   
    12    10    11 1   
    13    10     8 1   
    14     8     2 1   
    15     8     3 1   
    16     8     9 1   
    17     4     5 1   
    18     7     5 1   
    19     7     3 1   
    20     5     6 1   
    21     2    22 1   
    22     2    23 1   
    23     2    24 1   
    24     3    25 1   
    25     3    26 1   
    26     9    27 1   
    27     9    28 1   
    28     9    29 1   
    29    10    30 1   
    30    11    31 1   
    31    13    32 1   
    32    14    33 1   
    33    14    34 1   
    34    15    35 1   
    35    15    36 1   
    36    18    37 1   
    37    19    38 1   
    38    19    39 1   
    39    20    40 1   
    40    20    41 1   
    41    21    42 1   
    42     5    43 1   
@<TRIPOS>SUBSTRUCTURE
     1 5PD         1 TEMP              0 ****  ****    0 ROOT
