@<TRIPOS>MOLECULE
molecule
   38    40     1     0     0
SMALL
bcc


@<TRIPOS>ATOM
      1 CAA          0.0000     0.0000     0.0000 c3         1 5PE       0.124700
      2 OAN          1.4290     0.0000     0.0000 os         1 5PE      -0.310900
      3 CAT          2.0460     0.0000     1.2120 ca         1 5PE       0.127100
      4 CAJ          1.2920    -0.0000     2.3750 ca         1 5PE      -0.187000
      5 CAR          3.4350    -0.0060     1.2870 ca         1 5PE       0.090100
      6 OAC          4.1790    -0.0110     0.1490 oh         1 5PE      -0.503100
      7 CAH          4.0600    -0.0050     2.5240 ca         1 5PE      -0.132000
      8 CAI          3.3020     0.0000     3.6810 ca         1 5PE      -0.134000
      9 CAS          1.9220     0.0000     3.6070 ca         1 5PE      -0.066300
     10 CAU          1.1000     0.0010     4.8700 c3         1 5PE       0.275100
     11 SAO          0.7830    -1.7170     5.4380 ss         1 5PE      -0.346200
     12 CAK          1.0120    -1.3130     7.2170 c3         1 5PE      -0.050300
     13 CAP          1.8330    -0.0410     7.1540 c          1 5PE       0.697500
     14 OAB          2.4290     0.3840     8.1210 o          1 5PE      -0.628500
     15 NAV          1.8620     0.5860     5.9830 n          1 5PE      -0.478800
     16 CAL          2.6300     1.8200     5.8070 c3         1 5PE       0.060700
     17 CAQ          1.7560     3.0060     6.1240 ca         1 5PE       0.390600
     18 CAG          1.7850     3.5570     7.3920 ca         1 5PE      -0.224300
     19 CAE          0.9770     4.6470     7.6730 ca         1 5PE      -0.096000
     20 CAD          0.1670     5.1460     6.6650 ca         1 5PE      -0.248300
     21 CAF          0.1900     4.5430     5.4220 ca         1 5PE       0.414200
     22 NAM          0.9760     3.5090     5.1880 nb         1 5PE      -0.688000
     23 HAA1        -0.3610     0.0000    -1.0210 h1         1 5PE       0.043367
     24 HAA2        -0.3610    -0.8850     0.5110 h1         1 5PE       0.043367
     25 HAA3        -0.3610     0.8840     0.5110 h1         1 5PE       0.043367
     26 HAJ          0.2100    -0.0000     2.3190 ha         1 5PE       0.145000
     27 HAC          4.5540    -0.8670     0.0220 ho         1 5PE       0.418000
     28 HAH          5.1410    -0.0070     2.5850 ha         1 5PE       0.146000
     29 HAI          3.7910     0.0010     4.6470 ha         1 5PE       0.144000
     30 HAU          0.1670     0.5330     4.7280 h2         1 5PE       0.095700
     31 HAK1         0.0570    -1.1300     7.6950 h1         1 5PE       0.103700
     32 HAK2         1.5610    -2.0990     7.7210 h1         1 5PE       0.103700
     33 HAL1         2.9730     1.8890     4.7820 h1         1 5PE       0.084700
     34 HAL2         3.4840     1.8130     6.4730 h1         1 5PE       0.084700
     35 HAG          2.4300     3.1410     8.1560 ha         1 5PE       0.156000
     36 HAE          0.9790     5.0990     8.6580 ha         1 5PE       0.141000
     37 HAD         -0.4790     5.9960     6.8510 ha         1 5PE       0.138000
     38 HAF         -0.4390     4.9290     4.6280 h4         1 5PE       0.023100
@<TRIPOS>BOND
     1     1     2 1   
     2     2     3 1   
     3     3     4 ar  
     4     3     5 ar  
     5     4     9 ar  
     6     5     6 1   
     7     5     7 ar  
     8     7     8 ar  
     9     8     9 ar  
    10     9    10 1   
    11    10    11 1   
    12    10    15 1   
    13    11    12 1   
    14    12    13 1   
    15    13    14 2   
    16    13    15 1   
    17    15    16 1   
    18    16    17 1   
    19    17    18 ar  
    20    17    22 ar  
    21    18    19 ar  
    22    19    20 ar  
    23    20    21 ar  
    24    21    22 ar  
    25     1    23 1   
    26     1    24 1   
    27     1    25 1   
    28     4    26 1   
    29     6    27 1   
    30     7    28 1   
    31     8    29 1   
    32    10    30 1   
    33    12    31 1   
    34    12    32 1   
    35    16    33 1   
    36    16    34 1   
    37    18    35 1   
    38    19    36 1   
    39    20    37 1   
    40    21    38 1   
@<TRIPOS>SUBSTRUCTURE
     1 5PE         1 TEMP              0 ****  ****    0 ROOT
