@<TRIPOS>MOLECULE
molecule
   43    46     1     0     0
SMALL
bcc


@<TRIPOS>ATOM
      1 CAB          0.0000     0.0000     0.0000 c3         1 5PF      -0.075400
      2 CAA          1.5300     0.0000     0.0000 c3         1 5PF      -0.078400
      3 CAF          2.0410     0.0000     1.4420 c3         1 5PF      -0.079400
      4 CAE          1.5310    -1.2490     2.1640 c3         1 5PF      -0.078400
      5 CAD          0.0010    -1.2490     2.1640 c3         1 5PF      -0.075400
      6 CAC         -0.5100    -1.2490     0.7210 c3         1 5PF      -0.096700
      7 CAG         -2.0400    -1.2480     0.7220 c3         1 5PF       0.146100
      8 OAV         -2.5160    -0.0810     1.3960 oh         1 5PF      -0.601800
      9 CAH         -2.5500    -2.4980     1.4430 c3         1 5PF      -0.086400
     10 CAI         -4.0740    -2.5630     1.3340 c3         1 5PF       0.117300
     11 CAM         -4.6970    -1.4170     2.0930 ca         1 5PF      -0.132300
     12 CAT         -4.6660    -1.0440     3.4200 ca         1 5PF       0.175900
     13 FAU         -3.9660    -1.7800     4.3110 f          1 5PF      -0.142900
     14 CAS         -5.3520     0.0850     3.8380 ca         1 5PF      -0.164000
     15 CAR         -6.0690     0.8400     2.9260 ca         1 5PF      -0.096000
     16 CAQ         -6.1060     0.4740     1.5970 ca         1 5PF      -0.121000
     17 CAL         -5.4180    -0.6620     1.1670 ca         1 5PF       0.025000
     18 CAK         -5.2760    -1.2880    -0.1630 cc         1 5PF      -0.212600
     19 NAJ         -4.4850    -2.4090    -0.0650 na         1 5PF      -0.201900
     20 CAN         -4.3890    -2.9410    -1.3020 cc         1 5PF       0.432400
     21 NAO         -5.0760    -2.2040    -2.1340 nd         1 5PF      -0.694000
     22 CAP         -5.6330    -1.1830    -1.4720 cd         1 5PF       0.349200
     23 H1          -0.3600     0.8840     0.5130 hc         1 5PF       0.045950
     24 H2          -0.3600    -0.0020    -1.0220 hc         1 5PF       0.045950
     25 H3           1.8900     0.8860    -0.5090 hc         1 5PF       0.040700
     26 H4           1.8900    -0.8860    -0.5090 hc         1 5PF       0.040700
     27 H5           3.1240    -0.0030     1.4410 hc         1 5PF       0.041700
     28 H6           1.6770     0.8840     1.9530 hc         1 5PF       0.041700
     29 H7           1.8910    -2.1330     1.6510 hc         1 5PF       0.040700
     30 H8           1.8910    -1.2470     3.1860 hc         1 5PF       0.040700
     31 H9          -0.3590    -0.3630     2.6730 hc         1 5PF       0.045950
     32 H10         -0.3590    -2.1350     2.6730 hc         1 5PF       0.045950
     33 H11         -0.1450    -2.1320     0.2110 hc         1 5PF       0.053700
     34 H12         -2.4020    -1.2480    -0.2990 h1         1 5PF       0.044700
     35 H13         -2.5260     0.6460     0.7960 ho         1 5PF       0.406000
     36 H14         -2.2640    -2.4540     2.4870 hc         1 5PF       0.070200
     37 H15         -2.1170    -3.3800     0.9870 hc         1 5PF       0.070200
     38 H16         -4.4390    -3.5060     1.7240 h1         1 5PF       0.082700
     39 H17         -5.3270     0.3780     4.8800 ha         1 5PF       0.148000
     40 H18         -6.6030     1.7220     3.2580 ha         1 5PF       0.139000
     41 H19         -6.6690     1.0680     0.8870 ha         1 5PF       0.138000
     42 H20         -3.8330    -3.8330    -1.5620 h5         1 5PF       0.066100
     43 H21         -6.2580    -0.4100    -1.9030 h4         1 5PF       0.043100
@<TRIPOS>BOND
     1    15    16 ar
     2    15    14 ar
     3    16    17 ar
     4    14    12 ar
     5    17    18 1
     6    17    11 ar
     7    22    18 2
     8    22    21 1
     9    18    19 1
    10    12    11 ar
    11    12    13 1
    12    11    10 1
    13    21    20 2
    14    19    10 1
    15    19    20 1
    16    10     9 1
    17     9     7 1
    18     7     8 1
    19     7     6 1
    20     6     1 1
    21     6     5 1
    22     1     2 1
    23     5     4 1
    24     2     3 1
    25     4     3 1
    26     1    23 1
    27     1    24 1
    28     2    25 1
    29     2    26 1
    30     3    27 1
    31     3    28 1
    32     4    29 1
    33     4    30 1
    34     5    31 1
    35     5    32 1
    36     6    33 1
    37     7    34 1
    38     8    35 1
    39     9    36 1
    40     9    37 1
    41    10    38 1
    42    14    39 1
    43    15    40 1
    44    16    41 1
    45    20    42 1
    46    22    43 1
@<TRIPOS>SUBSTRUCTURE
     1 5PF         1 TEMP              0 ****  ****    0 ROOT
