@<TRIPOS>MOLECULE
molecule
   62    63     1     0     0
SMALL
bcc


@<TRIPOS>ATOM
      1 O32          0.0000     0.0000     0.0000 o          1 5PH      -0.648100
      2 C16          1.2130     0.0000     0.0000 c          1 5PH       0.682100
      3 N13          1.8860    -0.0020    -1.1670 ns         1 5PH      -0.521900
      4 C9           1.1540    -0.0020    -2.4360 c3         1 5PH       0.041700
      5 C25          2.0310     0.6070    -3.5310 c3         1 5PH      -0.194400
      6 C26          2.2900     2.0580    -3.2210 c          1 5PH       0.886600
      7 O30          3.0410     2.7990    -4.0500 o          1 5PH      -0.841300
      8 O28          1.8200     2.5560    -2.2240 o          1 5PH      -0.841300
      9 C35          0.7940    -1.4180    -2.8080 c          1 5PH       0.551100
     10 C36         -0.2400    -1.6760    -3.8730 c3         1 5PH      -0.196100
     11 O5           1.3340    -2.3430    -2.2520 o          1 5PH      -0.548100
     12 C19          1.9670     0.0000     1.3050 c3         1 5PH      -0.099400
     13 C20          2.8310    -1.2320     1.3850 ca         1 5PH      -0.073300
     14 C22          4.2030    -1.1060     1.5120 ca         1 5PH      -0.112000
     15 C24          4.9970    -2.2350     1.5850 ca         1 5PH      -0.129500
     16 C34          4.4190    -3.4900     1.5340 ca         1 5PH      -0.138000
     17 C33          3.0490    -3.6160     1.4090 ca         1 5PH      -0.129500
     18 C31          2.2550    -2.4860     1.3390 ca         1 5PH      -0.112000
     19 C4           0.9730     0.0010     2.4680 c3         1 5PH      -0.057400
     20 C1           1.7340     0.1260     3.7890 c3         1 5PH      -0.086400
     21 C12          0.7390     0.1280     4.9530 c3         1 5PH      -0.088400
     22 C8           1.5010     0.2540     6.2740 c3         1 5PH       0.229800
     23 N2           0.5490     0.2560     7.3870 n7         1 5PH      -0.919100
     24 S7           1.0840     0.0070     8.9340 sy         1 5PH       1.427200
     25 O3           1.9390    -1.1270     8.8700 o          1 5PH      -0.660300
     26 O6          -0.0630     0.1250     9.7640 o          1 5PH      -0.660300
     27 C11          2.1230     1.3660     9.3580 ca         1 5PH      -0.361500
     28 C21          3.4750     1.3000     9.1040 ca         1 5PH       0.022000
     29 C23          4.3000     2.3800     9.4340 ca         1 5PH      -0.141600
     30 C29          5.7460     2.3190     9.1600 c          1 5PH       0.882200
     31 O17          6.2770     1.2230     8.5850 o          1 5PH      -0.824800
     32 O14          6.4600     3.2580     9.4530 o          1 5PH      -0.824800
     33 C15          3.7430     3.5190    10.0320 ca         1 5PH       0.184100
     34 O10          4.5330     4.5710    10.3620 oh         1 5PH      -0.465100
     35 C18          2.3790     3.5650    10.2850 ca         1 5PH      -0.248000
     36 C27          1.5760     2.4940     9.9490 ca         1 5PH      -0.031000
     37 H13          2.8870     0.0190    -1.1680 hn         1 5PH       0.325500
     38 H9           0.2490     0.5850    -2.3300 h1         1 5PH       0.105700
     39 H251         2.9730     0.0740    -3.5770 hc         1 5PH       0.040700
     40 H252         1.5240     0.5270    -4.4860 hc         1 5PH       0.040700
     41 H361        -0.6680    -2.6610    -3.7290 hc         1 5PH       0.050367
     42 H362        -1.0210    -0.9290    -3.8070 hc         1 5PH       0.050367
     43 H363         0.2270    -1.6250    -4.8500 hc         1 5PH       0.050367
     44 H19          2.5900     0.8840     1.3620 hc         1 5PH       0.083700
     45 H22          4.6550    -0.1220     1.5520 ha         1 5PH       0.138500
     46 H24          6.0710    -2.1370     1.6830 ha         1 5PH       0.121000
     47 H34          5.0410    -4.3750     1.5900 ha         1 5PH       0.114000
     48 H33          2.5960    -4.6000     1.3700 ha         1 5PH       0.121000
     49 H31          1.1800    -2.5850     1.2410 ha         1 5PH       0.138500
     50 H41          0.2930     0.8380     2.3620 hc         1 5PH       0.054200
     51 H42          0.4090    -0.9240     2.4630 hc         1 5PH       0.054200
     52 H11          2.2980     1.0510     3.7950 hc         1 5PH       0.051200
     53 H12          2.4130    -0.7110     3.8960 hc         1 5PH       0.051200
     54 H121         0.1750    -0.7970     4.9480 hc         1 5PH       0.040200
     55 H122         0.0600     0.9650     4.8460 hc         1 5PH       0.040200
     56 H81          2.0640     1.1800     6.2790 h1         1 5PH       0.058700
     57 H82          2.1800    -0.5820     6.3800 h1         1 5PH       0.058700
     58 HN2         -0.4260     0.4000     7.2120 hn         1 5PH       0.441800
     59 H21          3.9100     0.3850     8.7190 ha         1 5PH       0.182000
     60 H10          4.3830     4.8060    11.2630 ho         1 5PH       0.396000
     61 H18          1.9440     4.4430    10.7470 ha         1 5PH       0.113000
     62 H27          0.5120     2.5350    10.1480 ha         1 5PH       0.125000
@<TRIPOS>BOND
     1     1     2 2   
     2     2     3 1   
     3     2    12 1   
     4     3     4 1   
     5     3    37 1   
     6     4     5 1   
     7     4     9 1   
     8     4    38 1   
     9     5     6 1   
    10     5    39 1   
    11     5    40 1   
    12     6     7 1   
    13     6     8 1   
    14     9    10 1   
    15     9    11 2   
    16    10    41 1   
    17    10    42 1   
    18    10    43 1   
    19    12    13 1   
    20    12    19 1   
    21    12    44 1   
    22    13    14 ar  
    23    13    18 ar  
    24    14    15 ar  
    25    14    45 1   
    26    15    16 ar  
    27    15    46 1   
    28    16    17 ar  
    29    16    47 1   
    30    17    18 ar  
    31    17    48 1   
    32    18    49 1   
    33    19    20 1   
    34    19    50 1   
    35    19    51 1   
    36    20    21 1   
    37    20    52 1   
    38    20    53 1   
    39    21    22 1   
    40    21    54 1   
    41    21    55 1   
    42    22    23 1   
    43    22    56 1   
    44    22    57 1   
    45    23    24 1   
    46    23    58 1   
    47    24    25 2   
    48    24    26 2   
    49    24    27 1   
    50    27    28 ar  
    51    27    36 ar  
    52    28    29 ar  
    53    28    59 1   
    54    29    30 1   
    55    29    33 ar  
    56    30    31 1   
    57    30    32 1   
    58    33    34 1   
    59    33    35 ar  
    60    34    60 1   
    61    35    36 ar  
    62    35    61 1   
    63    36    62 1   
@<TRIPOS>SUBSTRUCTURE
     1 5PH         1 TEMP              0 ****  ****    0 ROOT
