@<TRIPOS>MOLECULE
5PI
   84    86     1     0     0
SMALL
bcc


@<TRIPOS>ATOM
      1 C14          0.0000     0.0000     0.0000 c          1 5PI       0.571100
      2 O1           1.2130     0.0000     0.0000 o          1 5PI      -0.675100
      3 N5          -0.6730     0.0000     1.1660 ns         1 5PI      -0.178900
      4 C15          0.0580     0.0000     2.4340 c3         1 5PI      -0.057300
      5 C18          0.3120     1.4420     2.8760 c3         1 5PI      -0.040400
      6 C19          1.1390     2.1630     1.8100 c3         1 5PI      -0.188400
      7 C20         -0.7560    -0.7100     3.4850 c          1 5PI       0.566100
      8 O5          -1.8420    -1.1710     3.2010 o          1 5PI      -0.601100
      9 N6          -0.2790    -0.8320     4.7390 ns         1 5PI      -0.196900
     10 C21         -1.0720    -1.5220     5.7600 c3         1 5PI       0.103300
     11 C16         -0.4950    -0.4820     7.9620 ca         1 5PI      -0.052500
     12 C17          0.1910    -0.4770     9.1580 ca         1 5PI      -0.072500
     13 C22          1.0630    -1.5190     9.4650 ca         1 5PI      -0.216900
     14 C23          1.2370    -2.5640     8.5570 ca         1 5PI      -0.072500
     15 C24          0.5410    -2.5630     7.3650 ca         1 5PI      -0.052500
     16 C25         -0.3190    -1.5210     7.0660 ca         1 5PI      -0.074300
     17 N1           2.6650    -2.5510    11.0470 nz         1 5PI       0.190400
     18 C2           1.3890     3.5850     2.2440 c          1 5PI       0.354100
     19 O2           0.9490     3.9820     3.3020 o          1 5PI      -0.420100
     20 N3           2.1020     4.4150     1.4570 nz         1 5PI       0.200600
     21 C1          -1.0070     1.4400    -1.7480 c3         1 5PI       0.073800
     22 N4           0.0400    -0.6920    -2.3260 n7         1 5PI      -0.575100
     23 C5          -0.7510    -0.0020    -1.3060 c3         1 5PI       0.142500
     24 O4           0.4360    -2.3450    -4.0330 o          1 5PI      -0.572300
     25 O3          -0.8570    -2.9020    -1.9830 o          1 5PI      -0.572300
     26 C9          -2.0800    -1.4270    -3.8640 c3         1 5PI      -0.070600
     27 C8          -2.7660    -2.5740    -4.6090 c3         1 5PI       0.044900
     28 N2           1.6400    -0.5410    11.5920 n2         1 5PI      -0.469100
     29 C13         -0.7210     1.4400    -7.1320 ca         1 5PI      -0.185000
     30 C12         -2.0140     1.4400    -6.6620 ca         1 5PI      -0.042000
     31 C3          -2.2580     1.4390    -5.2940 ca         1 5PI      -0.268200
     32 C4          -1.1750     1.4390    -4.3970 ca         1 5PI      -0.059800
     33 C27          0.1330     1.4360    -4.8830 ca         1 5PI      -0.125000
     34 C6           0.3540     1.4420    -6.2470 ca         1 5PI       0.142100
     35 N7          -3.4110     1.4380    -4.5370 na         1 5PI       0.374600
     36 C29         -3.0930     1.4390    -3.2070 cc         1 5PI      -0.247100
     37 C28         -1.7600     1.4390    -3.0540 cd         1 5PI      -0.213400
     38 C7           1.5300     1.4420    -8.1530 c3         1 5PI       0.173400
     39 C10          2.9350     1.4430    -8.7580 c3         1 5PI      -0.037400
     40 C11          2.8320     1.4430   -10.2850 c3         1 5PI       0.011900
     41 HN5         -1.6740    -0.0250     1.1650 hn         1 5PI       0.213500
     42 H15          1.0050    -0.5100     2.3050 h1         1 5PI       0.075700
     43 H181        -0.6350     1.9530     3.0050 hc         1 5PI       0.035200
     44 H182         0.8530     1.4420     3.8140 hc         1 5PI       0.035200
     45 H191         1.8480     1.3450     1.8340 hc         1 5PI       0.113200
     46 H192         0.6050     2.1560     0.8680 hc         1 5PI       0.113200
     47 HN6          0.6360    -0.4920     4.9610 hn         1 5PI       0.171500
     48 H211        -2.0180    -1.0110     5.8890 h1         1 5PI       0.048200
     49 H212        -1.2520    -2.5430     5.4480 h1         1 5PI       0.048200
     50 H16         -1.1730     0.3290     7.7230 ha         1 5PI       0.132500
     51 H17          0.0520     0.3380     9.8590 ha         1 5PI       0.103500
     52 H23          1.9120    -3.3790     8.7900 ha         1 5PI       0.103500
     53 H24          0.6750    -3.3740     6.6600 ha         1 5PI       0.132500
     54 HN11         3.3830    -2.5990    10.3510 hn         1 5PI       0.224467
     55 HN12         3.0770    -2.3710    11.9400 hn         1 5PI       0.224467
     56 HN31         2.7870     3.8890     0.9510 hn         1 5PI       0.251467
     57 HN32         1.4880     4.8710     0.8110 hn         1 5PI       0.251467
     58 H11         -0.0610     1.9510    -1.8780 hc         1 5PI       0.004200
     59 H12A        -1.5930     1.9500    -0.9940 hc         1 5PI       0.004200
     60 HN4          0.9690    -0.3810    -2.5340 hn         1 5PI       0.366800
     61 H5          -1.6980    -0.5130    -1.1770 h1         1 5PI       0.051700
     62 H91         -2.7600    -1.0170    -3.1260 h1         1 5PI       0.085200
     63 H92         -1.8040    -0.6530    -4.5700 h1         1 5PI       0.085200
     64 H81         -3.3840    -2.7370    -3.7330 hc         1 5PI       0.018700
     65 H82         -3.3340    -2.2400    -5.4690 hc         1 5PI       0.018700
     66 H83         -2.0990    -3.4020    -4.8150 hc         1 5PI       0.018700
     67 HN2          1.0150     0.2100    11.3770 hn         1 5PI       0.379400
     68 H13         -0.5370     1.4450    -8.1990 ha         1 5PI       0.144000
     69 H12         -2.8430     1.4380    -7.3600 ha         1 5PI       0.109000
     70 H27          0.9700     1.4370    -4.1960 ha         1 5PI       0.112000
     71 HN7         -4.3410     1.4380    -4.9060 hn         1 5PI       0.124700
     72 H29         -3.8120     1.4420    -2.3960 h4         1 5PI       0.140000
     73 H71          0.9950     2.3260    -8.4790 h1         1 5PI       0.012700
     74 H72          0.9970     0.5570    -8.4780 h1         1 5PI       0.012700
     75 H101         3.4700     0.5590    -8.4320 hc         1 5PI       0.022200
     76 H102         3.4680     2.3280    -8.4320 hc         1 5PI       0.022200
     77 H111         2.2950     2.3260   -10.6110 hc         1 5PI       0.006033
     78 H112         3.8260     1.4460   -10.7150 hc         1 5PI       0.006033
     79 H113         2.3000     0.5570   -10.6110 hc         1 5PI       0.006033
     80 S1          -0.5660    -2.0390    -3.0740 s6         1 5PI       0.957900
     81 O6           1.6260     1.4430    -6.7270 os         1 5PI      -0.280900
     82 H131         2.1630    -3.4170    11.0670 hn         1 5PI       0.224467
     83 H33          2.5680     5.0950     2.0240 hn         1 5PI       0.251467
     84 C26          1.8030    -1.5190    10.7470 ce         1 5PI       0.203800
@<TRIPOS>BOND
     1     1     2 2   
     2     1     3 1   
     3     1    23 1   
     4     3     4 1   
     5     3    41 1   
     6     4     5 1   
     7     4     7 1   
     8     4    42 1   
     9     5     6 1   
    10     5    43 1   
    11     5    44 1   
    12     6    18 1   
    13     6    45 1   
    14     6    46 1   
    15     7     8 2   
    16     7     9 1   
    17     9    10 1   
    18     9    47 1   
    19    10    16 1   
    20    10    48 1   
    21    10    49 1   
    22    11    12 ar  
    23    11    16 ar  
    24    11    50 1   
    25    12    13 ar  
    26    12    51 1   
    27    13    14 ar  
    28    13    84 1   
    29    14    15 ar  
    30    14    52 1   
    31    15    16 ar  
    32    15    53 1   
    33    17    54 1   
    34    17    55 1   
    35    17    82 1   
    36    17    84 1   
    37    18    19 2   
    38    18    20 1   
    39    20    56 1   
    40    20    57 1   
    41    20    83 1   
    42    21    23 1   
    43    21    37 1   
    44    21    58 1   
    45    21    59 1   
    46    22    23 1   
    47    22    60 1   
    48    22    80 1   
    49    23    61 1   
    50    24    80 2   
    51    25    80 2   
    52    26    27 1   
    53    26    62 1   
    54    26    63 1   
    55    26    80 1   
    56    27    64 1   
    57    27    65 1   
    58    27    66 1   
    59    28    67 1   
    60    28    84 2   
    61    29    30 ar  
    62    29    34 ar  
    63    29    68 1   
    64    30    31 ar  
    65    30    69 1   
    66    31    32 ar  
    67    31    35 1   
    68    32    33 ar  
    69    32    37 1   
    70    33    34 ar  
    71    33    70 1   
    72    34    81 1   
    73    35    36 1   
    74    35    71 1   
    75    36    37 2   
    76    36    72 1   
    77    38    39 1   
    78    38    73 1   
    79    38    74 1   
    80    38    81 1   
    81    39    40 1   
    82    39    75 1   
    83    39    76 1   
    84    40    77 1   
    85    40    78 1   
    86    40    79 1   
@<TRIPOS>SUBSTRUCTURE
     1 5PI         1 TEMP              0 ****  ****    0 ROOT
