@<TRIPOS>MOLECULE
molecule
   41    44     1     0     0
SMALL
bcc


@<TRIPOS>ATOM
      1 CAB          0.0000     0.0000     0.0000 c3         1 5PJ      -0.067400
      2 CAC          1.5300     0.0000     0.0000 c3         1 5PJ      -0.078900
      3 CAD          2.0410     0.0000     1.4420 c3         1 5PJ      -0.081400
      4 CAE          1.5300    -1.2480     2.1640 c3         1 5PJ      -0.078900
      5 CAF         -0.0000    -1.2470     2.1650 c3         1 5PJ      -0.067400
      6 CAA         -0.5100    -1.2480     0.7220 c3         1 5PJ      -0.166700
      7 CAG         -2.0170    -1.2470     0.7230 c          1 5PJ       0.573100
      8 OAJ         -2.6200    -0.2050     0.6310 o          1 5PJ      -0.534100
      9 CAH         -2.7720    -2.5470     0.8380 c3         1 5PJ      -0.194400
     10 CAI         -4.2760    -2.2680     0.8130 c3         1 5PJ       0.131300
     11 CAN         -5.0420    -3.5660     0.8400 ca         1 5PJ      -0.174300
     12 CAU         -5.0860    -4.6490    -0.0130 ca         1 5PJ       0.165900
     13 FAV         -4.3270    -4.6570    -1.1310 f          1 5PJ      -0.142900
     14 CAT         -5.9070    -5.7270     0.2780 ca         1 5PJ      -0.172000
     15 CAS         -6.6840    -5.7190     1.4220 ca         1 5PJ      -0.090000
     16 CAR         -6.6490    -4.6410     2.2810 ca         1 5PJ      -0.123000
     17 CAM         -5.8240    -3.5510     1.9960 ca         1 5PJ       0.038000
     18 CAL         -5.5800    -2.2820     2.7110 cc         1 5PJ      -0.235600
     19 NAK         -4.6680    -1.5260     2.0150 na         1 5PJ      -0.190900
     20 CAO         -4.4820    -0.3840     2.7080 cc         1 5PJ       0.457400
     21 NAP         -5.2300    -0.4120     3.7800 nd         1 5PJ      -0.703000
     22 CAQ         -5.9170    -1.5600     3.8150 cd         1 5PJ       0.363200
     23 H1          -0.3600     0.8840     0.5120 hc         1 5PJ       0.051450
     24 H2          -0.3600    -0.0030    -1.0220 hc         1 5PJ       0.051450
     25 H3           1.8900     0.8860    -0.5090 hc         1 5PJ       0.043950
     26 H4           1.8900    -0.8860    -0.5090 hc         1 5PJ       0.043950
     27 H5           1.6780     0.8840     1.9520 hc         1 5PJ       0.044700
     28 H6           3.1240    -0.0030     1.4400 hc         1 5PJ       0.044700
     29 H7           1.8910    -1.2450     3.1860 hc         1 5PJ       0.043950
     30 H8           1.8900    -2.1320     1.6520 hc         1 5PJ       0.043950
     31 H9          -0.3590    -0.3610     2.6730 hc         1 5PJ       0.051450
     32 H10         -0.3600    -2.1330     2.6740 hc         1 5PJ       0.051450
     33 H11         -0.1460    -2.1320     0.2130 hc         1 5PJ       0.066700
     34 H12         -2.5100    -3.0350     1.7690 hc         1 5PJ       0.087700
     35 H13         -2.5100    -3.1910     0.0070 hc         1 5PJ       0.087700
     36 H14         -4.5390    -1.7020    -0.0720 h1         1 5PJ       0.097700
     37 H15         -5.9400    -6.5770    -0.3920 ha         1 5PJ       0.150000
     38 H16         -7.3240    -6.5650     1.6440 ha         1 5PJ       0.142000
     39 H17         -7.2590    -4.6390     3.1760 ha         1 5PJ       0.144000
     40 H18         -3.8200     0.4250     2.4240 h5         1 5PJ       0.084100
     41 H19         -6.6170    -1.8610     4.5850 h4         1 5PJ       0.042100
@<TRIPOS>BOND
     1     3     4 1   
     2     3     2 1   
     3     4     5 1   
     4     2     1 1   
     5     5     6 1   
     6     1     6 1   
     7     6     7 1   
     8     7     8 2   
     9     7     9 1   
    10     9    10 1   
    11    20    19 1   
    12    20    21 2   
    13    10    19 1   
    14    10    11 1   
    15    19    18 1   
    16    13    12 1   
    17    21    22 1   
    18    11    12 ar  
    19    11    17 ar  
    20    12    14 ar  
    21    18    22 2   
    22    18    17 1   
    23    17    16 ar  
    24    14    15 ar  
    25    16    15 ar  
    26     1    23 1   
    27     1    24 1   
    28     2    25 1   
    29     2    26 1   
    30     3    27 1   
    31     3    28 1   
    32     4    29 1   
    33     4    30 1   
    34     5    31 1   
    35     5    32 1   
    36     6    33 1   
    37     9    34 1   
    38     9    35 1   
    39    10    36 1   
    40    14    37 1   
    41    15    38 1   
    42    16    39 1   
    43    20    40 1   
    44    22    41 1   
@<TRIPOS>SUBSTRUCTURE
     1 5PJ         1 TEMP              0 ****  ****    0 ROOT
