@<TRIPOS>MOLECULE
molecule
   43    46     1     0     0
SMALL
bcc


@<TRIPOS>ATOM
      1 CAA          0.0000     0.0000     0.0000 c3         1 5PK      -0.077900
      2 CAF          1.5300     0.0000     0.0000 c3         1 5PK      -0.077400
      3 CAE          2.0400     0.0000     1.4430 c3         1 5PK      -0.080400
      4 CAD          1.5300    -1.2500     2.1630 c3         1 5PK      -0.077400
      5 CAC          0.0000    -1.2500     2.1630 c3         1 5PK      -0.077900
      6 CAB         -0.5100    -1.2500     0.7210 c3         1 5PK      -0.083700
      7 CAG         -2.0400    -1.2500     0.7210 c3         1 5PK       0.140100
      8 OAI         -2.5170    -2.4160     1.3940 oh         1 5PK      -0.606800
      9 CAH         -2.5500    -1.2480    -0.7220 c3         1 5PK      -0.092400
     10 CAJ         -4.0790    -1.2110    -0.7220 c3         1 5PK       0.108300
     11 CAK         -4.5650     0.1060    -0.1690 ca         1 5PK      -0.120300
     12 CAR         -4.4070     0.7230     1.0510 ca         1 5PK      -0.105000
     13 CAS         -4.9810     1.9630     1.2790 ca         1 5PK      -0.129000
     14 CAT         -5.7140     2.5830     0.2830 ca         1 5PK      -0.118000
     15 CAU         -5.8780     1.9730    -0.9440 ca         1 5PK      -0.102000
     16 CAL         -5.3010     0.7230    -1.1800 ca         1 5PK       0.004000
     17 CAM         -5.3040    -0.1590    -2.3650 cc         1 5PK      -0.216600
     18 NAN         -4.5850    -1.2980    -2.0960 na         1 5PK      -0.197900
     19 CAQ         -4.6190    -2.0650    -3.2060 cc         1 5PK       0.437400
     20 NAP         -5.3160    -1.4510    -4.1230 nd         1 5PK      -0.696000
     21 CAO         -5.7530    -0.2800    -3.6450 cd         1 5PK       0.352200
     22 H1          -0.3600    -0.0020    -1.0220 hc         1 5PK       0.042950
     23 H2          -0.3600     0.8840     0.5130 hc         1 5PK       0.042950
     24 H3           1.8900     0.8860    -0.5090 hc         1 5PK       0.042950
     25 H4           1.8900    -0.8860    -0.5090 hc         1 5PK       0.042950
     26 H5           3.1230    -0.0020     1.4420 hc         1 5PK       0.041200
     27 H6           1.6760     0.8830     1.9530 hc         1 5PK       0.041200
     28 H7           1.8900    -1.2490     3.1850 hc         1 5PK       0.042950
     29 H8           1.8890    -2.1330     1.6490 hc         1 5PK       0.042950
     30 H9          -0.3590    -0.3650     2.6730 hc         1 5PK       0.042950
     31 H10         -0.3590    -2.1370     2.6720 hc         1 5PK       0.042950
     32 H11         -0.1440    -2.1330     0.2110 hc         1 5PK       0.067700
     33 H12         -2.4010    -0.3650     1.2320 h1         1 5PK       0.043700
     34 H13         -2.8900    -2.1700     2.2230 ho         1 5PK       0.402000
     35 H14         -2.1670    -0.3770    -1.2390 hc         1 5PK       0.068700
     36 H15         -2.2100    -2.1450    -1.2260 hc         1 5PK       0.068700
     37 H16         -4.4750    -2.0280    -0.1310 h1         1 5PK       0.093700
     38 H17         -3.8340     0.2400     1.8330 ha         1 5PK       0.127000
     39 H18         -4.8570     2.4470     2.2400 ha         1 5PK       0.135000
     40 H19         -6.1610     3.5530     0.4660 ha         1 5PK       0.136000
     41 H20         -6.4520     2.4620    -1.7210 ha         1 5PK       0.139000
     42 H21         -4.1450    -3.0330    -3.3170 h5         1 5PK       0.067100
     43 H22         -6.3550     0.4440    -4.1810 h4         1 5PK       0.042100
@<TRIPOS>BOND
     1    15    14 ar
     2    15    16 ar
     3    14    13 ar
     4    21    17 2
     5    21    20 1
     6    16    17 1
     7    16    11 ar
     8    17    18 1
     9    20    19 2
    10    13    12 ar
    11    11    12 ar
    12    11    10 1
    13    18    19 1
    14    18    10 1
    15    10     9 1
    16     9     7 1
    17     8     7 1
    18     7     6 1
    19     5     6 1
    20     5     4 1
    21     6     1 1
    22     4     3 1
    23     1     2 1
    24     3     2 1
    25     1    22 1
    26     1    23 1
    27     2    24 1
    28     2    25 1
    29     3    26 1
    30     3    27 1
    31     4    28 1
    32     4    29 1
    33     5    30 1
    34     5    31 1
    35     6    32 1
    36     7    33 1
    37     8    34 1
    38     9    35 1
    39     9    36 1
    40    10    37 1
    41    12    38 1
    42    13    39 1
    43    14    40 1
    44    15    41 1
    45    19    42 1
    46    21    43 1
@<TRIPOS>SUBSTRUCTURE
     1 5PK         1 TEMP              0 ****  ****    0 ROOT
