@<TRIPOS>MOLECULE
molecule
   47    50     1     0     0
SMALL
bcc


@<TRIPOS>ATOM
      1 N11          0.0000     0.0000     0.0000 nb         1 5PM      -0.644500
      2 N12         -2.7840     0.0020    -0.0620 ne         1 5PM      -0.534600
      3 N13        -10.1270    -4.4190     3.3760 ne         1 5PM      -0.534600
      4 N14        -10.7930    -6.4980     5.1050 nb         1 5PM      -0.644500
      5 C1A          1.3160     0.0000     0.0000 ca         1 5PM       0.416700
      6 C1B          2.0280     0.0000     1.1870 ca         1 5PM      -0.244300
      7 C1C          1.3420     0.0010     2.3930 ca         1 5PM      -0.098000
      8 C1D         -0.0420     0.0020     2.3670 ca         1 5PM      -0.229800
      9 C1E         -0.6960     0.0020     1.1330 ca         1 5PM       0.376000
     10 C1F         -2.1690     0.0030     1.0860 cf         1 5PM       0.373200
     11 C1G         -4.1500     0.0040    -0.1050 ca         1 5PM       0.134900
     12 C1H         -4.8780    -0.8470     0.7320 ca         1 5PM      -0.134750
     13 C1I         -6.2540    -0.8430     0.6860 ca         1 5PM      -0.094250
     14 C1J         -6.9200     0.0050    -0.1930 ca         1 5PM      -0.004600
     15 C1K         -6.1980     0.8540    -1.0280 ca         1 5PM      -0.094250
     16 C1L         -4.8220     0.8590    -0.9830 ca         1 5PM      -0.134750
     17 S1M         -8.6810     0.0070    -0.2490 ss         1 5PM      -0.202800
     18 C1N         -9.1130    -1.3140     0.8340 ca         1 5PM      -0.004600
     19 C1O         -9.4110    -1.0500     2.1670 ca         1 5PM      -0.094250
     20 C1P         -9.7490    -2.0810     3.0160 ca         1 5PM      -0.134750
     21 C1Q         -9.7930    -3.3940     2.5370 ca         1 5PM       0.134900
     22 C1R         -9.4930    -3.6550     1.1960 ca         1 5PM      -0.134750
     23 C1S         -9.1620    -2.6190     0.3510 ca         1 5PM      -0.094250
     24 C1T        -10.9720    -5.3310     2.9850 cf         1 5PM       0.373200
     25 C1U        -11.3320    -6.4360     3.8910 ca         1 5PM       0.376000
     26 C1V        -12.2370    -7.4120     3.4680 ca         1 5PM      -0.229800
     27 C1W        -12.5650    -8.4440     4.3300 ca         1 5PM      -0.098000
     28 C1X        -11.9790    -8.4680     5.5870 ca         1 5PM      -0.244300
     29 C1Y        -11.0890    -7.4680     5.9420 ca         1 5PM       0.416700
     30 H1A          1.8490    -0.0010    -0.9430 h4         1 5PM       0.027600
     31 H1B          3.1110    -0.0000     1.1750 ha         1 5PM       0.139500
     32 H1C          1.8780     0.0010     3.3350 ha         1 5PM       0.140000
     33 H1D         -0.6100     0.0030     3.2900 ha         1 5PM       0.139500
     34 H1F         -2.7410     0.0040     2.0060 h4         1 5PM      -0.012200
     35 H1H         -4.3600    -1.5080     1.4160 ha         1 5PM       0.144000
     36 H1I         -6.8190    -1.5020     1.3340 ha         1 5PM       0.145500
     37 H1K         -6.7200     1.5150    -1.7090 ha         1 5PM       0.145500
     38 H1L         -4.2610     1.5200    -1.6330 ha         1 5PM       0.144000
     39 H1O         -9.3770    -0.0330     2.5380 ha         1 5PM       0.145500
     40 H1P         -9.9810    -1.8750     4.0540 ha         1 5PM       0.144000
     41 H1R         -9.5310    -4.6700     0.8200 ha         1 5PM       0.144000
     42 H1S         -8.9290    -2.8210    -0.6870 ha         1 5PM       0.145500
     43 H1T        -11.4090    -5.2760     1.9960 h4         1 5PM      -0.012200
     44 H1V        -12.6760    -7.3620     2.4790 ha         1 5PM       0.139500
     45 H1W        -13.2640    -9.2150     4.0300 ha         1 5PM       0.140000
     46 H1X        -12.2150    -9.2620     6.2850 ha         1 5PM       0.139500
     47 H1Y        -10.6300    -7.4860     6.9230 h4         1 5PM       0.027600
@<TRIPOS>BOND
     1     5     1 ar  
     2     1     9 ar  
     3    10     2 2   
     4     2    11 1   
     5    21     3 1   
     6     3    24 2   
     7     4    29 ar  
     8     4    25 ar  
     9     6     5 ar  
    10     5    30 1   
    11     6     7 ar  
    12     6    31 1   
    13     7     8 ar  
    14     7    32 1   
    15     8     9 ar  
    16     8    33 1   
    17     9    10 1   
    18    10    34 1   
    19    11    16 ar  
    20    11    12 ar  
    21    12    13 ar  
    22    12    35 1   
    23    13    14 ar  
    24    13    36 1   
    25    15    14 ar  
    26    14    17 1   
    27    16    15 ar  
    28    15    37 1   
    29    16    38 1   
    30    17    18 1   
    31    23    18 ar  
    32    18    19 ar  
    33    19    20 ar  
    34    19    39 1   
    35    21    20 ar  
    36    20    40 1   
    37    22    21 ar  
    38    23    22 ar  
    39    22    41 1   
    40    23    42 1   
    41    24    25 1   
    42    24    43 1   
    43    25    26 ar  
    44    26    27 ar  
    45    26    44 1   
    46    28    27 ar  
    47    27    45 1   
    48    29    28 ar  
    49    28    46 1   
    50    29    47 1   
@<TRIPOS>SUBSTRUCTURE
     1 5PM         1 TEMP              0 ****  ****    0 ROOT
