@<TRIPOS>MOLECULE
5PM
   47    52     1     0     0
SMALL
bcc


@<TRIPOS>ATOM
      1 N11          0.0000     0.0000     0.0000 n2         1 5PM      -0.037000
      2 N12         -2.7840     0.0020    -0.0620 n2         1 5PM       0.091000
      3 N13        -10.1270    -4.4190     3.3760 n2         1 5PM       0.091000
      4 N14        -10.7930    -6.4980     5.1050 n2         1 5PM      -0.037000
      5 C1A          1.3160     0.0000     0.0000 c2         1 5PM      -0.075500
      6 C1B          2.0280     0.0000     1.1870 c2         1 5PM      -0.123000
      7 C1C          1.3420     0.0010     2.3930 c2         1 5PM      -0.091500
      8 C1D         -0.0420     0.0020     2.3670 c2         1 5PM      -0.067000
      9 C1E         -0.6960     0.0020     1.1330 c3         1 5PM      -0.153000
     10 C1F         -2.1690     0.0030     1.0860 c2         1 5PM      -0.367500
     11 C1G         -4.1500     0.0040    -0.1050 ca         1 5PM      -0.047500
     12 C1H         -4.8780    -0.8470     0.7320 ca         1 5PM      -0.076250
     13 C1I         -6.2540    -0.8430     0.6860 ca         1 5PM      -0.076500
     14 C1J         -6.9200     0.0050    -0.1930 ca         1 5PM      -0.183500
     15 C1K         -6.1980     0.8540    -1.0280 ca         1 5PM      -0.076500
     16 C1L         -4.8220     0.8590    -0.9830 ca         1 5PM      -0.076250
     17 S1M         -8.6810     0.0070    -0.2490 ss         1 5PM       0.163000
     18 C1N         -9.1130    -1.3140     0.8340 ca         1 5PM      -0.183500
     19 C1O         -9.4110    -1.0500     2.1670 ca         1 5PM      -0.076500
     20 C1P         -9.7490    -2.0810     3.0160 ca         1 5PM      -0.076250
     21 C1Q         -9.7930    -3.3940     2.5370 ca         1 5PM      -0.047500
     22 C1R         -9.4930    -3.6550     1.1960 ca         1 5PM      -0.076250
     23 C1S         -9.1620    -2.6190     0.3510 ca         1 5PM      -0.076500
     24 C1T        -10.9720    -5.3310     2.9850 c2         1 5PM      -0.367500
     25 C1U        -11.3320    -6.4360     3.8910 c3         1 5PM      -0.153000
     26 C1V        -12.2370    -7.4120     3.4680 c2         1 5PM      -0.067000
     27 C1W        -12.5650    -8.4440     4.3300 c2         1 5PM      -0.091500
     28 C1X        -11.9790    -8.4680     5.5870 c2         1 5PM      -0.123000
     29 C1Y        -11.0890    -7.4680     5.9420 c2         1 5PM      -0.075500
     30 H1A          1.8490    -0.0010    -0.9430 h4         1 5PM       0.121500
     31 H1B          3.1110    -0.0000     1.1750 ha         1 5PM       0.113500
     32 H1C          1.8780     0.0010     3.3350 ha         1 5PM       0.114000
     33 H1D         -0.6100     0.0030     3.2900 ha         1 5PM       0.130000
     34 H1F         -1.5530    -0.8730     0.9240 DU         1 5PM       0.317500
     35 H1H         -4.3600    -1.5080     1.4160 ha         1 5PM       0.119000
     36 H1I         -6.8190    -1.5020     1.3340 ha         1 5PM       0.121750
     37 H1K         -6.7200     1.5150    -1.7090 ha         1 5PM       0.121750
     38 H1L         -4.2610     1.5200    -1.6330 ha         1 5PM       0.119000
     39 H1O         -9.3770    -0.0330     2.5380 ha         1 5PM       0.121750
     40 H1P         -9.9810    -1.8750     4.0540 ha         1 5PM       0.119000
     41 H1R         -9.5310    -4.6700     0.8200 ha         1 5PM       0.119000
     42 H1S         -8.9290    -2.8210    -0.6870 ha         1 5PM       0.121750
     43 H1T        -10.3490    -6.1980     3.1710 DU         1 5PM       0.317500
     44 H1V        -12.6760    -7.3620     2.4790 ha         1 5PM       0.130000
     45 H1W        -13.2640    -9.2150     4.0300 ha         1 5PM       0.114000
     46 H1X        -12.2150    -9.2620     6.2850 ha         1 5PM       0.113500
     47 H1Y        -10.6300    -7.4860     6.9230 h4         1 5PM       0.121500
@<TRIPOS>BOND
     1     1     5 1   
     2     1     9 1   
     3     2    10 1   
     4     2    11 1   
     5     3    21 1   
     6     3    24 1   
     7     4    25 1   
     8     4    29 1   
     9     5     6 1   
    10     5    30 1   
    11     6     7 1   
    12     6    31 1   
    13     7     8 1   
    14     7    32 1   
    15     8     9 1   
    16     8    33 1   
    17     9    10 1   
    18     9    34 1   
    19    10    34 1   
    20    11    12 1   
    21    11    16 1   
    22    12    13 1   
    23    12    35 1   
    24    13    14 1   
    25    13    36 1   
    26    14    15 1   
    27    14    17 1   
    28    15    16 1   
    29    15    37 1   
    30    16    38 1   
    31    17    18 1   
    32    18    19 1   
    33    18    23 1   
    34    19    20 1   
    35    19    39 1   
    36    20    21 1   
    37    20    40 1   
    38    21    22 1   
    39    22    23 1   
    40    22    41 1   
    41    23    42 1   
    42    24    25 1   
    43    24    43 1   
    44    25    26 1   
    45    25    43 1   
    46    26    27 1   
    47    26    44 1   
    48    27    28 1   
    49    27    45 1   
    50    28    29 1   
    51    28    46 1   
    52    29    47 1   
@<TRIPOS>SUBSTRUCTURE
     1 5PM         1 TEMP              0 ****  ****    0 ROOT
