@<TRIPOS>MOLECULE
5PN
   19    20     1     0     0
SMALL
bcc


@<TRIPOS>ATOM
      1 CAA        -0.0240    0.0350    0.0340 c3        1 5PN     -0.150400
      2 CAI         1.4680    0.0230    0.0770 ca        1 5PN      0.445600
      3 NAF         2.1200    0.1100    1.2490 nb        1 5PN     -0.654000
      4 CAD         3.4760    0.0970    1.2600 ca        1 5PN      0.456200
      5 CAK         4.2140   -0.0030    0.0880 ca        1 5PN     -0.263900
      6 CAH         5.6610   -0.0390   -0.1840 c         1 5PN      0.741200
      7 OAB         6.6690    0.0060    0.5060 o         1 5PN     -0.543500
      8 OAG         5.8600   -0.1500   -1.5620 os        1 5PN     -0.410900
      9 CAE         4.5800   -0.1920   -2.2440 c3        1 5PN      0.169700
     10 CAL         3.5450   -0.0960   -1.1650 ca        1 5PN     -0.159300
     11 CAJ         2.1630   -0.0840   -1.1820 ca        1 5PN      0.019800
     12 OAC         1.3870   -0.1660   -2.3100 oh        1 5PN     -0.477100
     13 H1         -0.3790   -0.9060   -0.4570 hc        1 5PN      0.065700
     14 H2         -0.4800    0.1130    1.0500 hc        1 5PN      0.065700
     15 H3         -0.3610    0.9020   -0.5880 hc        1 5PN      0.065700
     16 H4          3.9540    0.1720    2.2540 h4        1 5PN      0.048100
     17 H5          4.5410   -1.1620   -2.8020 h1        1 5PN      0.078700
     18 H6          4.5590    0.6780   -2.9480 h1        1 5PN      0.078700
     19 H7          1.9810   -0.2330   -3.0730 ho        1 5PN      0.425000
@<TRIPOS>BOND
     1    1    2 1   
     2    1   13 1   
     3    1   14 1   
     4    1   15 1   
     5    2    3 ar  
     6    2   11 ar  
     7    3    4 ar  
     8    4    5 ar  
     9    4   16 1   
    10    5    6 1   
    11    5   10 ar  
    12    6    7 2   
    13    6    8 1   
    14    8    9 1   
    15    9   10 1   
    16    9   17 1   
    17    9   18 1   
    18   10   11 ar  
    19   11   12 1   
    20   12   19 1   
@<TRIPOS>SUBSTRUCTURE
     1 5PN         1 TEMP              0 ****  ****    0 ROOT
