@<TRIPOS>MOLECULE
molecule
   19    20     1     0     0
SMALL
bcc


@<TRIPOS>ATOM
      1 CAA          0.0000     0.0000     0.0000 c3         1 5PN      -0.141400
      2 CAI          1.5070     0.0000     0.0000 ca         1 5PN       0.448600
      3 NAF          2.1570     0.0000     1.1480 nb         1 5PN      -0.685000
      4 CAD          3.4730    -0.0000     1.2110 ca         1 5PN       0.499200
      5 CAK          4.2360     0.0000     0.0420 ca         1 5PN      -0.318900
      6 CAH          5.6840     0.0010    -0.2190 c          1 5PN       0.747200
      7 OAB          6.5460     0.0010     0.6370 o          1 5PN      -0.557500
      8 OAG          5.9180     0.0020    -1.5440 os         1 5PN      -0.378900
      9 CAE          4.6450     0.0020    -2.2490 c3         1 5PN       0.182700
     10 CAL          3.5740     0.0010    -1.1920 ca         1 5PN      -0.110300
     11 CAJ          2.1930    -0.0040    -1.2100 ca         1 5PN      -0.002200
     12 OAC          1.5170    -0.0100    -2.3890 oh         1 5PN      -0.509100
     13 H1          -0.3610     0.0810     1.0180 hc         1 5PN       0.061700
     14 H2          -0.3610     0.8410    -0.5790 hc         1 5PN       0.061700
     15 H3          -0.3610    -0.9220    -0.4390 hc         1 5PN       0.061700
     16 H4           3.9660    -0.0000     2.1750 h4         1 5PN       0.047100
     17 H5           4.5630    -0.9000    -2.8440 h1         1 5PN       0.085700
     18 H6           4.5630     0.9040    -2.8420 h1         1 5PN       0.085700
     19 H7           1.4730    -0.8910    -2.7220 ho         1 5PN       0.423000
@<TRIPOS>BOND
     1     1     2 1
     2     2    11 ar
     3     2     3 ar
     4    12    11 1
     5    11    10 ar
     6     3     4 ar
     7    10     5 ar
     8    10     9 1
     9     4     5 ar
    10     5     6 1
    11     9     8 1
    12     6     8 1
    13     6     7 2
    14     1    13 1
    15     1    14 1
    16     1    15 1
    17     4    16 1
    18     9    17 1
    19     9    18 1
    20    12    19 1
@<TRIPOS>SUBSTRUCTURE
     1 5PN         1 TEMP              0 ****  ****    0 ROOT
