@<TRIPOS>MOLECULE
5PP
   39    40     1     0     0
SMALL
bcc


@<TRIPOS>ATOM
      1 O17         0.4170    0.5250    0.4020 oh        1 5PP     -0.492100
      2 C6          1.7610    0.5050    0.1270 ca        1 5PP      0.133100
      3 C5          2.7440    0.7700    1.1000 ca        1 5PP     -0.002900
      4 O7          2.2960    1.1720    2.3570 os        1 5PP     -0.260200
      5 C8          2.6950    0.3860    3.4360 ca        1 5PP      0.107100
      6 C13         2.5160    0.9820    4.6960 ca        1 5PP     -0.165500
      7 C12         2.8400    0.2500    5.8350 ca        1 5PP     -0.103000
      8 C11         3.3390   -1.0490    5.7250 ca        1 5PP     -0.155000
      9 C10         3.5160   -1.6260    4.4680 ca        1 5PP     -0.103000
     10 C9          3.1960   -0.9140    3.3120 ca        1 5PP     -0.165500
     11 C4          4.1000    0.7530    0.7590 ca        1 5PP     -0.105000
     12 C3          4.4700    0.4680   -0.5510 ca        1 5PP     -0.155000
     13 C2          3.5000    0.2020   -1.5280 ca        1 5PP     -0.045300
     14 C1          2.1450    0.2230   -1.1930 ca        1 5PP     -0.151000
     15 C14         3.9180   -0.0900   -2.9280 c3        1 5PP     -0.040100
     16 C15         4.5430   -1.4670   -3.0510 c3        1 5PP     -0.076400
     17 C16         4.9960   -1.7320   -4.4710 c3        1 5PP     -0.080400
     18 C17         5.6180   -3.1060   -4.6010 c3        1 5PP     -0.080400
     19 C18         6.0720   -3.3750   -6.0130 c3        1 5PP     -0.093100
     20 H17         0.3090    0.7360    1.3440 ho        1 5PP      0.437000
     21 H13         2.1230    2.0050    4.7650 ha        1 5PP      0.149500
     22 H12         2.7020    0.7040    6.8270 ha        1 5PP      0.135000
     23 H11         3.5930   -1.6170    6.6310 ha        1 5PP      0.134000
     24 H10         3.9090   -2.6500    4.3820 ha        1 5PP      0.135000
     25 H9          3.3360   -1.3640    2.3190 ha        1 5PP      0.149500
     26 H4          4.8560    0.9630    1.5300 ha        1 5PP      0.149000
     27 H3          5.5350    0.4530   -0.8270 ha        1 5PP      0.139000
     28 H1          1.3670    0.0220   -1.9440 ha        1 5PP      0.154000
     29 H141        3.0350   -0.0190   -3.6170 hc        1 5PP      0.051700
     30 H142        4.6600    0.6860   -3.2590 hc        1 5PP      0.051700
     31 H151        5.4180   -1.5450   -2.3530 hc        1 5PP      0.044700
     32 H152        3.7990   -2.2470   -2.7410 hc        1 5PP      0.044700
     33 H161        5.7410   -0.9520   -4.7810 hc        1 5PP      0.040200
     34 H162        4.1210   -1.6480   -5.1680 hc        1 5PP      0.040200
     35 H171        6.4920   -3.1880   -3.9020 hc        1 5PP      0.039200
     36 H172        4.8720   -3.8840   -4.2900 hc        1 5PP      0.039200
     37 H181        6.8350   -2.6240   -6.3320 hc        1 5PP      0.033033
     38 H182        6.5270   -4.3930   -6.0860 hc        1 5PP      0.033033
     39 H183        5.2110   -3.3220   -6.7210 hc        1 5PP      0.033033
@<TRIPOS>BOND
     1    1    2 1   
     2    1   20 1   
     3    2    3 ar  
     4    2   14 ar  
     5    3    4 1   
     6    3   11 ar  
     7    4    5 1   
     8    5    6 ar  
     9    5   10 ar  
    10    6    7 ar  
    11    6   21 1   
    12    7    8 ar  
    13    7   22 1   
    14    8    9 ar  
    15    8   23 1   
    16    9   10 ar  
    17    9   24 1   
    18   10   25 1   
    19   11   12 ar  
    20   11   26 1   
    21   12   13 ar  
    22   12   27 1   
    23   13   14 ar  
    24   13   15 1   
    25   14   28 1   
    26   15   16 1   
    27   15   29 1   
    28   15   30 1   
    29   16   17 1   
    30   16   31 1   
    31   16   32 1   
    32   17   18 1   
    33   17   33 1   
    34   17   34 1   
    35   18   19 1   
    36   18   35 1   
    37   18   36 1   
    38   19   37 1   
    39   19   38 1   
    40   19   39 1   
@<TRIPOS>SUBSTRUCTURE
     1 5PP         1 TEMP              0 ****  ****    0 ROOT
