@<TRIPOS>MOLECULE
molecule
   39    40     1     0     0
SMALL
bcc


@<TRIPOS>ATOM
      1 O17          0.0000     0.0000     0.0000 oh         1 5PP      -0.505100
      2 C6           1.3600     0.0000     0.0000 ca         1 5PP       0.086100
      3 C5           2.0570     0.0000     1.2040 ca         1 5PP       0.092100
      4 O7           1.3810     0.0000     2.3840 os         1 5PP      -0.204200
      5 C8           2.3090    -0.1250     3.3690 ca         1 5PP       0.080100
      6 C13          2.8320     1.0050     3.9790 ca         1 5PP      -0.137000
      7 C12          3.7750     0.8750     4.9800 ca         1 5PP      -0.121500
      8 C11          4.1970    -0.3810     5.3750 ca         1 5PP      -0.130000
      9 C10          3.6770    -1.5100     4.7670 ca         1 5PP      -0.121500
     10 C9           2.7300    -1.3850     3.7700 ca         1 5PP      -0.137000
     11 C4           3.4440     0.0000     1.1980 ca         1 5PP      -0.191000
     12 C3           4.1300     0.0000    -0.0010 ca         1 5PP      -0.103000
     13 C2           3.4360    -0.0000    -1.1980 ca         1 5PP      -0.097300
     14 C1           2.0540     0.0050    -1.1990 ca         1 5PP      -0.136000
     15 C14          4.1890     0.0000    -2.5030 c3         1 5PP      -0.033100
     16 C15          4.4440    -1.4420    -2.9440 c3         1 5PP      -0.078400
     17 C16          5.2100    -1.4430    -4.2690 c3         1 5PP      -0.083400
     18 C17          5.4650    -2.8860    -4.7110 c3         1 5PP      -0.083400
     19 C18          6.2300    -2.8850    -6.0360 c3         1 5PP      -0.092100
     20 H17         -0.3140     0.8430    -0.2820 ho         1 5PP       0.416000
     21 H13          2.5020     1.9900     3.6710 ha         1 5PP       0.146000
     22 H12          4.1830     1.7570     5.4570 ha         1 5PP       0.135500
     23 H11          4.9370    -0.4810     6.1580 ha         1 5PP       0.133000
     24 H10          4.0080    -2.4930     5.0790 ha         1 5PP       0.135500
     25 H9           2.3240    -2.2690     3.2940 ha         1 5PP       0.146000
     26 H4           3.9890     0.0010     2.1340 ha         1 5PP       0.156000
     27 H3           5.2130    -0.0020    -0.0050 ha         1 5PP       0.135000
     28 H1           1.5140     0.0050    -2.1380 ha         1 5PP       0.143000
     29 H141         5.1350     0.5110    -2.3740 hc         1 5PP       0.047700
     30 H142         3.6030     0.5110    -3.2580 hc         1 5PP       0.047700
     31 H151         5.0300    -1.9530    -2.1890 hc         1 5PP       0.046700
     32 H152         3.4980    -1.9530    -3.0740 hc         1 5PP       0.046700
     33 H161         4.6240    -0.9330    -5.0250 hc         1 5PP       0.040700
     34 H162         6.1560    -0.9320    -4.1400 hc         1 5PP       0.040700
     35 H171         4.5190    -3.3970    -4.8400 hc         1 5PP       0.041200
     36 H172         6.0510    -3.3960    -3.9560 hc         1 5PP       0.041200
     37 H181         5.6430    -2.3750    -6.7910 hc         1 5PP       0.032700
     38 H182         6.4110    -3.9070    -6.3490 hc         1 5PP       0.032700
     39 H183         7.1760    -2.3740    -5.9070 hc         1 5PP       0.032700
@<TRIPOS>BOND
     1     1     2 1   
     2     1    20 1   
     3     2     3 ar  
     4     2    14 ar  
     5     3     4 1   
     6     3    11 ar  
     7     4     5 1   
     8     5     6 ar  
     9     5    10 ar  
    10     6     7 ar  
    11     6    21 1   
    12     7     8 ar  
    13     7    22 1   
    14     8     9 ar  
    15     8    23 1   
    16     9    10 ar  
    17     9    24 1   
    18    10    25 1   
    19    11    12 ar  
    20    11    26 1   
    21    12    13 ar  
    22    12    27 1   
    23    13    14 ar  
    24    13    15 1   
    25    14    28 1   
    26    15    16 1   
    27    15    29 1   
    28    15    30 1   
    29    16    17 1   
    30    16    31 1   
    31    16    32 1   
    32    17    18 1   
    33    17    33 1   
    34    17    34 1   
    35    18    19 1   
    36    18    35 1   
    37    18    36 1   
    38    19    37 1   
    39    19    38 1   
    40    19    39 1   
@<TRIPOS>SUBSTRUCTURE
     1 5PP         1 TEMP              0 ****  ****    0 ROOT
