@<TRIPOS>MOLECULE
molecule
   46    49     1     0     0
SMALL
bcc


@<TRIPOS>ATOM
      1 C4           0.0000     0.0000     0.0000 cc         1 5PQ       0.202100
      2 C5           1.4000     0.0000     0.0000 cd         1 5PQ      -0.195900
      3 C6           2.0760     0.0000     1.2420 c          1 5PQ       0.732100
      4 C8           0.7580    -0.0020    -2.0700 cc         1 5PQ       0.073400
      5 N1           1.3400     0.0010     2.3750 ns         1 5PQ      -0.447400
      6 N3          -0.6620     0.0070     1.1630 nd         1 5PQ      -0.580100
      7 O6           3.2950    -0.0010     1.2890 o          1 5PQ      -0.496500
      8 C2          -0.0220     0.0020     2.3110 cc         1 5PQ       0.563800
      9 N7           1.8020    -0.0020    -1.2940 na         1 5PQ       0.068900
     10 CAA          3.1950    -0.0020    -1.7480 c3         1 5PQ       0.001600
     11 N9          -0.3800    -0.0010    -1.3150 na         1 5PQ      -0.000100
     12 CAZ         -1.7550    -0.0010    -1.8190 c3         1 5PQ       0.267800
     13 OAN         -1.7920    -0.4450    -3.1930 os         1 5PQ      -0.392600
     14 CAX         -2.3110     1.4440    -1.8900 c3         1 5PQ      -0.218900
     15 OAH         -2.8750     1.8350    -0.6370 oh         1 5PQ      -0.559800
     16 CAW         -3.4070     1.3170    -2.9760 c3         1 5PQ       0.070100
     17 OAG         -4.6920     1.1550    -2.3710 oh         1 5PQ      -0.549800
     18 CAY         -3.0170     0.0490    -3.7600 c3         1 5PQ       0.142100
     19 CAJ         -2.8060     0.3950    -5.2350 c3         1 5PQ       0.138800
     20 NAL         -2.5360    -0.8310    -5.9900 nu         1 5PQ      -0.760000
     21 CAQ         -2.3130    -0.7680    -7.3420 cc         1 5PQ       0.015800
     22 CAT         -2.2640     0.3250    -8.3220 c          1 5PQ       0.483300
     23 OAE         -2.4020     1.5330    -8.2910 o          1 5PQ      -0.460100
     24 CAS         -1.9770    -0.6870    -9.3640 c          1 5PQ       0.464300
     25 OAD         -1.7750    -0.6690   -10.5640 o          1 5PQ      -0.428100
     26 CAP         -2.0360    -1.7170    -8.3250 cd         1 5PQ      -0.049100
     27 OAF         -1.8820    -3.0590    -8.3220 oh         1 5PQ      -0.457100
     28 H1           0.7860    -0.0040    -3.1530 h5         1 5PQ       0.290000
     29 H2           1.7960     0.0020     3.2660 hn         1 5PQ       0.384500
     30 H3          -0.4680    -0.7750     4.0420 hn         1 5PQ       0.501133
     31 H4          -1.7200    -0.0680     3.2650 hn         1 5PQ       0.501133
     32 H5           3.6940     0.8870    -1.3830 h1         1 5PQ       0.113700
     33 H6           3.2220    -0.0120    -2.8310 h1         1 5PQ       0.113700
     34 H7           3.6990    -0.8820    -1.3670 h1         1 5PQ       0.113700
     35 H8          -2.3930    -0.6230    -1.2030 h2         1 5PQ       0.086700
     36 H9          -2.7060     0.5700    -1.3860 h1         1 5PQ       0.250700
     37 H10         -2.2070     2.4490    -0.8940 ho         1 5PQ       0.483000
     38 H11         -3.3950     2.1820    -3.6270 h1         1 5PQ       0.116700
     39 H12         -4.7030     1.9120    -2.9330 ho         1 5PQ       0.443000
     40 H13         -3.7950    -0.6980    -3.6590 h1         1 5PQ       0.090700
     41 H14         -3.6490    -0.2090    -4.9240 h1         1 5PQ       0.107700
     42 H15         -3.2890     1.2420    -5.7070 h1         1 5PQ       0.107700
     43 H16         -2.5330    -1.7160    -5.5230 hn         1 5PQ       0.463800
     44 H17         -2.3480    -3.4310    -9.0530 ho         1 5PQ       0.450000
     45 N2          -0.7450     0.0040     3.4770 nz         1 5PQ      -0.745600
     46 H23         -0.5730     0.8550     3.9740 hn         1 5PQ       0.501133
@<TRIPOS>BOND
     1    23    22 2   
     2    20    21 1   
     3    20    19 1   
     4    45     8 1   
     5     5     8 1   
     6     5     3 1   
     7     7     3 2   
     8     8     6 2   
     9    22    21 1   
    10    22    24 1   
    11     3     2 1   
    12    13    18 1   
    13    13    12 1   
    14     6     1 1   
    15    21    26 2   
    16     2     1 2   
    17     2     9 1   
    18    19    18 1   
    19     1    11 1   
    20    10     9 1   
    21     9     4 2   
    22    11     4 1   
    23    11    12 1   
    24    18    16 1   
    25    12    14 1   
    26    24    26 1   
    27    24    25 2   
    28    26    27 1   
    29    16    14 1   
    30    16    17 1   
    31    14    15 1   
    32     4    28 1   
    33     5    29 1   
    34    45    30 1   
    35    45    31 1   
    36    10    32 1   
    37    10    33 1   
    38    10    34 1   
    39    12    35 1   
    40    14    36 1   
    41    15    37 1   
    42    16    38 1   
    43    17    39 1   
    44    18    40 1   
    45    19    41 1   
    46    19    42 1   
    47    20    43 1   
    48    27    44 1   
    49    46    45 1   
@<TRIPOS>SUBSTRUCTURE
     1 5PQ         1 TEMP              0 ****  ****    0 ROOT
