@<TRIPOS>MOLECULE
5PQ
   46    50     1     0     0
SMALL
bcc


@<TRIPOS>ATOM
      1 C4           0.0000     0.0000     0.0000 c2         1 5PQ      -0.150000
      2 C5           1.4000     0.0000     0.0000 c2         1 5PQ      -0.352000
      3 C6           2.0760     0.0000     1.2420 c2         1 5PQ       0.276000
      4 C8           0.7580    -0.0020    -2.0700 c2         1 5PQ      -0.276000
      5 N1           1.3400     0.0010     2.3750 ns         1 5PQ       0.206000
      6 N3          -0.6620     0.0070     1.1630 n2         1 5PQ       0.034000
      7 O6           3.2950    -0.0010     1.2890 o          1 5PQ      -0.262000
      8 C2          -0.0220     0.0020     2.3110 c2         1 5PQ      -0.343000
      9 N7           1.8020    -0.0020    -1.2940 na         1 5PQ       0.609000
     10 CAA          3.1950    -0.0020    -1.7480 c3         1 5PQ      -0.166000
     11 N9          -0.3800    -0.0010    -1.3150 na         1 5PQ       0.458000
     12 CAZ         -1.7550    -0.0010    -1.8190 DU         1 5PQ       0.105000
     13 OAN         -1.7920    -0.4450    -3.1930 os         1 5PQ      -0.247000
     14 CAX         -2.3110     1.4440    -1.8900 c3         1 5PQ      -0.342000
     15 OAH         -2.8750     1.8350    -0.6370 oh         1 5PQ      -0.290000
     16 CAW         -3.4070     1.3170    -2.9760 c3         1 5PQ       0.015000
     17 OAG         -4.6920     1.1550    -2.3710 oh         1 5PQ      -0.289000
     18 CAY         -3.0170     0.0490    -3.7600 c3         1 5PQ       0.092000
     19 CAJ         -2.8060     0.3950    -5.2350 c3         1 5PQ      -0.184000
     20 NAL         -2.5360    -0.8310    -5.9900 nu         1 5PQ       0.137000
     21 CAQ         -2.3130    -0.7680    -7.3420 cv         1 5PQ      -0.233000
     22 CAT         -2.2640     0.3250    -8.3220 cv         1 5PQ       0.283000
     23 OAE         -2.4020     1.5330    -8.2910 o          1 5PQ      -0.259000
     24 CAS         -1.9770    -0.6870    -9.3640 cv         1 5PQ       0.245000
     25 OAD         -1.7750    -0.6690   -10.5640 o          1 5PQ      -0.223000
     26 CAP         -2.0360    -1.7170    -8.3250 cv         1 5PQ      -0.056000
     27 OAF         -1.8820    -3.0590    -8.3220 oh         1 5PQ      -0.189000
     28 H1           0.7860    -0.0040    -3.1530 h5         1 5PQ       0.239000
     29 H2           1.7960     0.0020     3.2660 hn         1 5PQ       0.131000
     30 H3          -0.4680    -0.7750     4.0420 hn         1 5PQ       0.037333
     31 H4          -1.7200    -0.0680     3.2650 hn         1 5PQ       0.037333
     32 H5           3.6940     0.8870    -1.3830 h1         1 5PQ       0.117333
     33 H6           3.2220    -0.0120    -2.8310 h1         1 5PQ       0.117333
     34 H7           3.6990    -0.8820    -1.3670 h1         1 5PQ       0.117333
     35 H8          -2.3930    -0.6230    -1.2030 ha         1 5PQ       0.085000
     36 H9          -2.7060     0.5700    -1.3860 DU         1 5PQ       0.252000
     37 H10         -2.2070     2.4490    -0.8940 ho         1 5PQ       0.291000
     38 H11         -3.3950     2.1820    -3.6270 h1         1 5PQ       0.113000
     39 H12         -4.7030     1.9120    -2.9330 ho         1 5PQ       0.245000
     40 H13         -3.7950    -0.6980    -3.6590 h1         1 5PQ       0.097000
     41 H14         -3.6490    -0.2090    -4.9240 h1         1 5PQ       0.105000
     42 H15         -3.2890     1.2420    -5.7070 h1         1 5PQ       0.105000
     43 H16         -2.5330    -1.7160    -5.5230 hn         1 5PQ       0.092000
     44 H17         -2.3480    -3.4310    -9.0530 ho         1 5PQ       0.227000
     45 N2          -0.7450     0.0040     3.4770 nz         1 5PQ       0.956000
     46 H23         -0.5730     0.8550     3.9740 hn         1 5PQ       0.037333
@<TRIPOS>BOND
     1     1     2 1   
     2     1     6 1   
     3     1    11 1   
     4     2     3 1   
     5     2     9 1   
     6     3     5 1   
     7     3     7 1   
     8     4     9 1   
     9     4    11 1   
    10     4    28 1   
    11     5     8 1   
    12     5    29 1   
    13     6     8 1   
    14     8    45 1   
    15     9    10 1   
    16    10    32 1   
    17    10    33 1   
    18    10    34 1   
    19    11    12 1   
    20    12    13 1   
    21    12    14 1   
    22    12    35 1   
    23    12    36 1   
    24    13    18 1   
    25    14    15 1   
    26    14    16 1   
    27    14    36 1   
    28    15    37 1   
    29    16    17 1   
    30    16    18 1   
    31    16    38 1   
    32    17    39 1   
    33    18    19 1   
    34    18    40 1   
    35    19    20 1   
    36    19    41 1   
    37    19    42 1   
    38    20    21 1   
    39    20    43 1   
    40    21    22 1   
    41    21    26 1   
    42    22    23 1   
    43    22    24 1   
    44    24    25 1   
    45    24    26 1   
    46    26    27 1   
    47    27    44 1   
    48    30    45 1   
    49    31    45 1   
    50    45    46 1   
@<TRIPOS>SUBSTRUCTURE
     1 5PQ         1 TEMP              0 ****  ****    0 ROOT
