@<TRIPOS>MOLECULE
5PR
   21    21     1     0     0
SMALL
bcc


@<TRIPOS>ATOM
      1 N1         -0.0660    0.1160   -0.0200 nb        1 5PR     -0.677000
      2 C2          1.2870    0.0310   -0.0650 ca        1 5PR      0.352600
      3 C3          2.0570   -0.0790    1.1210 ca        1 5PR     -0.009200
      4 O3          3.4280   -0.1550    0.9720 oh        1 5PR     -0.522100
      5 C4          1.4230   -0.1230    2.3790 ca        1 5PR     -0.135300
      6 C5          0.0330    0.0130    2.4150 ca        1 5PR     -0.196900
      7 C6         -0.6550    0.1150    1.1840 ca        1 5PR      0.383200
      8 C2A         1.9910    0.0320   -1.3810 c3        1 5PR     -0.124400
      9 C4A         2.2060   -0.3190    3.6410 c3        1 5PR      0.190700
     10 O4A         2.5500    0.9090    4.2480 oh        1 5PR     -0.643800
     11 O51        -1.9520   -0.3310    3.6920 o         1 5PR     -0.825800
     12 O52        -0.1920    0.5620    4.7320 o         1 5PR     -0.825800
     13 C5A        -0.7610    0.0800    3.7080 c         1 5PR      0.914200
     14 HO3         3.8210    0.1760    1.7940 ho        1 5PR      0.422000
     15 H6         -1.7590    0.1900    1.1980 h4        1 5PR      0.038100
     16 H2A         2.2380   -1.0190   -1.6700 hc        1 5PR      0.037700
     17 H2AA        2.9480    0.6040   -1.2890 hc        1 5PR      0.037700
     18 H2AB        1.3700    0.4880   -2.1890 hc        1 5PR      0.037700
     19 H4A         1.6000   -0.9440    4.3550 h1        1 5PR      0.045700
     20 H4AA        3.1870   -0.8310    3.4390 h1        1 5PR      0.045700
     21 HO4A        1.7170    1.2870    4.5840 ho        1 5PR      0.455000
@<TRIPOS>BOND
     1    1    2 ar  
     2    1    7 ar  
     3    2    3 ar  
     4    2    8 1   
     5    3    4 1   
     6    3    5 ar  
     7    4   14 1   
     8    5    6 ar  
     9    5    9 1   
    10    6    7 ar  
    11    6   13 1   
    12    7   15 1   
    13    8   16 1   
    14    8   17 1   
    15    8   18 1   
    16    9   10 1   
    17    9   19 1   
    18    9   20 1   
    19   10   21 1   
    20   11   13 1   
    21   12   13 1   
@<TRIPOS>SUBSTRUCTURE
     1 5PR         1 TEMP              0 ****  ****    0 ROOT
