@<TRIPOS>MOLECULE
molecule
   21    21     1     0     0
SMALL
bcc


@<TRIPOS>ATOM
      1 N1           0.0000     0.0000     0.0000 nb         1 5PR      -0.715000
      2 C2           1.3200     0.0000     0.0000 ca         1 5PR       0.368600
      3 C3           2.0350     0.0000     1.1910 ca         1 5PR      -0.037200
      4 O3           3.3930     0.0000     1.1770 oh         1 5PR      -0.523100
      5 C4           1.3440     0.0000     2.3950 ca         1 5PR      -0.054300
      6 C5          -0.0560    -0.0000     2.3570 ca         1 5PR      -0.194900
      7 C6          -0.6970     0.0000     1.1170 ca         1 5PR       0.432200
      8 C2A          2.0620     0.0000    -1.3110 c3         1 5PR      -0.128400
      9 C4A          2.0820    -0.0010     3.7090 c3         1 5PR       0.198700
     10 O4A          2.1660     1.3350     4.2090 oh         1 5PR      -0.579800
     11 O51         -2.1810    -0.1200     3.5620 o          1 5PR      -0.827300
     12 O52         -0.2770     0.1070     4.6780 o          1 5PR      -0.827300
     13 C5A         -0.8400     0.0000     3.6080 c          1 5PR       0.885200
     14 HO3          3.7070    -0.8870     1.1170 ho         1 5PR       0.398000
     15 H6          -1.7790     0.0010     1.0740 h4         1 5PR       0.050100
     16 H2A          2.6140    -0.9260    -1.4140 hc         1 5PR       0.036700
     17 H2AA         2.7510     0.8350    -1.3360 hc         1 5PR       0.036700
     18 H2AB         1.3550     0.0910    -2.1270 hc         1 5PR       0.036700
     19 H4A          1.5500    -0.6200     4.4210 h1         1 5PR       0.034200
     20 H4AA         3.0800    -0.3950     3.5620 h1         1 5PR       0.034200
     21 HO4A         2.8480     1.3850     4.8590 ho         1 5PR       0.378000
@<TRIPOS>BOND
     1     1     2 ar
     2     1     7 ar
     3     2     3 ar
     4     2     8 1
     5     3     4 1
     6     3     5 ar
     7     5     6 ar
     8     5     9 1
     9     6     7 ar
    10     6    13 1
    11     9    10 1
    12    11    13 1
    13    12    13 1
    14     4    14 1
    15     7    15 1
    16     8    16 1
    17     8    17 1
    18     8    18 1
    19     9    19 1
    20     9    20 1
    21    10    21 1
@<TRIPOS>SUBSTRUCTURE
     1 5PR         1 TEMP              0 ****  ****    0 ROOT
