@<TRIPOS>MOLECULE
5PS
   59    63     1     0     0
SMALL
bcc


@<TRIPOS>ATOM
      1 C1           0.0000     0.0000     0.0000 ca         1 5PS      -0.243800
      2 F1          -7.4870     5.0510    11.5050 f          1 5PS      -0.127900
      3 N1           2.0560     0.0000     1.1320 nb         1 5PS      -0.599000
      4 O1          -4.7230     3.1730     2.3750 o          1 5PS      -0.629100
      5 C2           1.3790     0.0000     0.0000 ca         1 5PS       0.424700
      6 F2          -5.3860     5.3830     3.3240 f          1 5PS      -0.106900
      7 O2          -2.0870     1.2700     3.0800 o          1 5PS      -0.618100
      8 C3           1.4520    -0.0000     2.3060 ca         1 5PS       0.424700
      9 N3          -4.6680     1.2870     3.5470 ns         1 5PS      -0.161900
     10 C4           0.0750    -0.0010     2.3920 ca         1 5PS      -0.243800
     11 N4          -8.2280    -1.1950     3.2090 na         1 5PS       0.364600
     12 C5          -0.6770    -0.0010     1.2190 ca         1 5PS      -0.055400
     13 C6          -2.7150     0.6250     2.2670 c          1 5PS       0.549100
     14 C8          -4.8940     2.6120     3.4400 c          1 5PS       0.604700
     15 C9          -5.3510     3.3790     4.6130 ca         1 5PS      -0.180600
     16 C10         -5.5490     2.7350     5.8370 ca         1 5PS      -0.056000
     17 C11         -5.9750     3.4520     6.9320 ca         1 5PS      -0.125000
     18 C12         -6.2100     4.8230     6.8220 cp         1 5PS       0.015000
     19 C13         -6.6700     5.5930     8.0030 cp         1 5PS      -0.016000
     20 C14         -6.9060     6.9630     7.8970 ca         1 5PS      -0.105000
     21 C15         -7.3330     7.6750     8.9990 ca         1 5PS      -0.070000
     22 C16         -7.5280     7.0330    10.2080 ca         1 5PS      -0.127000
     23 C17         -7.2950     5.6720    10.3210 ca         1 5PS       0.107900
     24 C18         -6.8730     4.9480     9.2220 ca         1 5PS      -0.130000
     25 C19         -6.0130     5.4700     5.6030 ca         1 5PS      -0.150000
     26 C20         -5.5810     4.7550     4.5040 ca         1 5PS       0.190900
     27 C21         -4.6160    -0.9430     2.5430 c3         1 5PS       0.067800
     28 C22         -6.1190    -1.0560     2.5340 cc         1 5PS      -0.169400
     29 C23         -6.9240    -1.0860     3.6070 cd         1 5PS      -0.260100
     30 C24         -8.2970    -1.2380     1.8350 ca         1 5PS      -0.224200
     31 C25         -9.3480    -1.3420     0.9310 ca         1 5PS      -0.098000
     32 C26         -9.0890    -1.3610    -0.4220 ca         1 5PS      -0.081000
     33 C27         -7.7860    -1.2770    -0.8940 ca         1 5PS      -0.122000
     34 C28         -6.7370    -1.1740    -0.0230 ca         1 5PS      -0.048000
     35 C29         -6.9780    -1.1530     1.3520 ca         1 5PS      -0.091800
     36 C7          -4.2150     0.5240     2.3810 c3         1 5PS      -0.055300
     37 H1          -0.5490    -0.0000    -0.9340 ha         1 5PS       0.130000
     38 H2           1.9140     0.0000    -0.9420 h4         1 5PS      -0.020900
     39 H3           2.0440    -0.0000     3.2130 h4         1 5PS      -0.020900
     40 HA          -2.5960    -0.4340     0.5270 hn         1 5PS       0.172500
     41 H4          -0.4150    -0.0010     3.3580 ha         1 5PS       0.130000
     42 HB          -4.7680     0.8330     4.4330 hn         1 5PS       0.178500
     43 H7          -4.6730     0.9270     1.4860 h1         1 5PS       0.079700
     44 HC          -9.0160    -1.2370     3.8250 hn         1 5PS       0.115700
     45 H23         -6.5910    -1.0340     4.6370 h4         1 5PS       0.137000
     46 H10         -5.3680     1.6700     5.9240 ha         1 5PS       0.104000
     47 H11         -6.1290     2.9510     7.8800 ha         1 5PS       0.118000
     48 H19         -6.1960     6.5350     5.5200 ha         1 5PS       0.132000
     49 H14         -6.7540     7.4680     6.9510 ha         1 5PS       0.118000
     50 H18         -6.7750     3.8710     9.2880 ha         1 5PS       0.126000
     51 H15         -7.5160     8.7400     8.9170 ha         1 5PS       0.109000
     52 H16         -7.8630     7.5960    11.0700 ha         1 5PS       0.120000
     53 H211        -4.2310    -1.3210     3.4830 hc         1 5PS       0.022700
     54 H212        -4.2050    -1.5230     1.7260 hc         1 5PS       0.022700
     55 H25        -10.3680    -1.4080     1.2900 ha         1 5PS       0.101000
     56 H26         -9.9100    -1.4420    -1.1240 ha         1 5PS       0.103000
     57 H27         -7.5990    -1.2930    -1.9610 ha         1 5PS       0.104000
     58 H28         -5.7230    -1.1090    -0.3990 ha         1 5PS       0.096000
     59 N2          -2.0730    -0.0020     1.2630 ns         1 5PS      -0.029100
@<TRIPOS>BOND
     1     1     5 ar  
     2     1    12 ar  
     3     1    37 1   
     4     2    23 1   
     5     3     5 ar  
     6     3     8 ar  
     7     4    14 2   
     8     5    38 1   
     9     6    26 1   
    10     7    13 2   
    11     8    10 ar  
    12     8    39 1   
    13     9    14 1   
    14     9    36 1   
    15     9    42 1   
    16    10    12 ar  
    17    10    41 1   
    18    11    29 1   
    19    11    30 1   
    20    11    44 1   
    21    12    59 1   
    22    13    36 1   
    23    13    59 1   
    24    14    15 1   
    25    15    16 ar  
    26    15    26 ar  
    27    16    17 ar  
    28    16    46 1   
    29    17    18 ar  
    30    17    47 1   
    31    18    19 1   
    32    18    25 ar  
    33    19    20 ar  
    34    19    24 ar  
    35    20    21 ar  
    36    20    49 1   
    37    21    22 ar  
    38    21    51 1   
    39    22    23 ar  
    40    22    52 1   
    41    23    24 ar  
    42    24    50 1   
    43    25    26 ar  
    44    25    48 1   
    45    27    28 1   
    46    27    36 1   
    47    27    53 1   
    48    27    54 1   
    49    28    29 2   
    50    28    35 1   
    51    29    45 1   
    52    30    31 ar  
    53    30    35 ar  
    54    31    32 ar  
    55    31    55 1   
    56    32    33 ar  
    57    32    56 1   
    58    33    34 ar  
    59    33    57 1   
    60    34    35 ar  
    61    34    58 1   
    62    36    43 1   
    63    40    59 1   
@<TRIPOS>SUBSTRUCTURE
     1 5PS         1 TEMP              0 ****  ****    0 ROOT
