@<TRIPOS>MOLECULE
molecule
   33    33     1     0     0
SMALL
bcc


@<TRIPOS>ATOM
      1 CAG          0.0000     0.0000     0.0000 ca         1 5PU      -0.163000
      2 CAI          1.3790     0.0000     0.0000 ca         1 5PU      -0.105500
      3 CAS          2.0750     0.0000     1.2100 ca         1 5PU      -0.127600
      4 CAO          3.5510     0.0000     1.2180 c          1 5PU       0.889200
      5 OAE          4.1640     0.0000     0.1690 o          1 5PU      -0.857800
      6 OAA          4.2200    -0.0010     2.3880 o          1 5PU      -0.857800
      7 CAJ          1.3680    -0.0010     2.4140 ca         1 5PU      -0.105500
      8 CAH         -0.0120    -0.0000     2.4000 ca         1 5PU      -0.163000
      9 CAR         -0.6950    -0.0000     1.1970 ca         1 5PU      -0.090300
     10 CAM         -2.2020     0.0060     1.1890 c3         1 5PU      -0.014100
     11 CAT         -2.7170    -1.4290     1.0480 c3         1 5PU      -0.167700
     12 CAP         -4.2170    -1.4110     0.9080 c          1 5PU       0.892600
     13 OAF         -4.8250    -2.2930     0.0990 o          1 5PU      -0.864800
     14 OAB         -4.8720    -0.6040     1.5220 o          1 5PU      -0.864800
     15 CAL         -2.3300    -2.2340     2.2900 c3         1 5PU      -0.045400
     16 CAK         -2.7340    -3.6960     2.0950 c3         1 5PU      -0.140400
     17 CAQ         -2.3530    -4.4900     3.3180 c          1 5PU       0.664100
     18 OAC         -1.8110    -3.9390     4.2540 o          1 5PU      -0.585100
     19 NAN         -2.6150    -5.8110     3.3740 ns         1 5PU      -0.488400
     20 OAD         -2.2560    -6.5560     4.5230 oh         1 5PU      -0.385100
     21 H1          -0.5410    -0.0000    -0.9390 ha         1 5PU       0.111000
     22 H2           1.9220     0.0000    -0.9380 ha         1 5PU       0.136500
     23 H4           1.9010    -0.0010     3.3570 ha         1 5PU       0.136500
     24 H5          -0.5610    -0.0000     3.3340 ha         1 5PU       0.111000
     25 H6          -2.5560     0.6000     0.3560 hc         1 5PU       0.044200
     26 H7          -2.5670     0.4310     2.1170 hc         1 5PU       0.044200
     27 H8          -2.2770    -1.8850     0.1700 hc         1 5PU       0.046700
     28 H10         -1.2590    -2.1730     2.4410 hc         1 5PU       0.053200
     29 H11         -2.8400    -1.8300     3.1560 hc         1 5PU       0.053200
     30 H12         -3.8050    -3.7570     1.9440 hc         1 5PU       0.077200
     31 H13         -2.2240    -4.1000     1.2290 hc         1 5PU       0.077200
     32 H14         -3.0620    -6.2650     2.6020 hn         1 5PU       0.312500
     33 H15         -2.5050    -7.4580     4.4030 ho         1 5PU       0.376000
@<TRIPOS>BOND
     1     5     4 1   
     2     4     6 1   
     3     4     3 1   
     4     2     3 ar  
     5     2     1 ar  
     6     3     7 ar  
     7     1     9 ar  
     8     7     8 ar  
     9    18    17 2   
    10     9     8 ar  
    11     9    10 1   
    12    16    17 1   
    13    16    15 1   
    14    17    19 1   
    15    15    11 1   
    16    11    10 1   
    17    11    12 1   
    18    19    20 1   
    19    14    12 1   
    20    12    13 1   
    21     1    21 1   
    22     2    22 1   
    23     7    23 1   
    24     8    24 1   
    25    10    25 1   
    26    10    26 1   
    27    11    27 1   
    28    15    28 1   
    29    15    29 1   
    30    16    30 1   
    31    16    31 1   
    32    19    32 1   
    33    20    33 1   
@<TRIPOS>SUBSTRUCTURE
     1 5PU         1 TEMP              0 ****  ****    0 ROOT
