@<TRIPOS>MOLECULE
5PV
   26    26     1     0     0
SMALL
bcc


@<TRIPOS>ATOM
      1 C1          0.0010   -0.0160    0.0020 ca        1 5PV     -0.055300
      2 C2          1.4010   -0.0030    0.0130 ca        1 5PV     -0.131500
      3 C3          2.0970    0.0280    1.2200 ca        1 5PV     -0.134000
      4 C4          1.4030    0.0450    2.4290 ca        1 5PV     -0.149000
      5 C5          0.0090    0.0300    2.4270 ca        1 5PV     -0.134000
      6 C6         -0.6890   -0.0010    1.2210 ca        1 5PV     -0.131500
      7 C7         -0.7440   -0.0460   -1.2860 c3        1 5PV     -0.045100
      8 C8         -1.0140   -1.4640   -1.7560 c3        1 5PV     -0.074400
      9 C9         -1.7730   -1.4660   -3.0670 c3        1 5PV     -0.067400
     10 C10        -2.0520   -2.8650   -3.5530 c3        1 5PV     -0.194400
     11 C11        -2.8200   -2.8760   -4.8870 c         1 5PV      0.907600
     12 O1         -3.1110   -4.0060   -5.3750 o         1 5PV     -0.852800
     13 O2         -3.1240   -1.7760   -5.4320 o         1 5PV     -0.852800
     14 H2          1.9500   -0.0220   -0.9400 ha        1 5PV      0.134000
     15 H3          3.1970    0.0360    1.2180 ha        1 5PV      0.120000
     16 H4          1.9530    0.0690    3.3810 ha        1 5PV      0.118000
     17 H5         -0.5420    0.0400    3.3780 ha        1 5PV      0.120000
     18 H6         -1.7890   -0.0180    1.2210 ha        1 5PV      0.134000
     19 H71        -0.1570    0.4970   -2.0750 hc        1 5PV      0.047700
     20 H72        -1.7210    0.4960   -1.1710 hc        1 5PV      0.047700
     21 H81        -1.6050   -2.0100   -0.9750 hc        1 5PV      0.031200
     22 H82        -0.0420   -2.0090   -1.8790 hc        1 5PV      0.031200
     23 H91        -1.1880   -0.9160   -3.8510 hc        1 5PV      0.044700
     24 H92        -2.7440   -0.9180   -2.9510 hc        1 5PV      0.044700
     25 H101       -1.0930   -3.4240   -3.6990 hc        1 5PV      0.020200
     26 H102       -2.6570   -3.4250   -2.7970 hc        1 5PV      0.020200
@<TRIPOS>BOND
     1    1    2 ar  
     2    1    6 ar  
     3    1    7 1   
     4    2    3 ar  
     5    2   14 1   
     6    3    4 ar  
     7    3   15 1   
     8    4    5 ar  
     9    4   16 1   
    10    5    6 ar  
    11    5   17 1   
    12    6   18 1   
    13    7    8 1   
    14    7   19 1   
    15    7   20 1   
    16    8    9 1   
    17    8   21 1   
    18    8   22 1   
    19    9   10 1   
    20    9   23 1   
    21    9   24 1   
    22   10   11 1   
    23   10   25 1   
    24   10   26 1   
    25   11   12 1   
    26   11   13 1   
@<TRIPOS>SUBSTRUCTURE
     1 5PV         1 TEMP              0 ****  ****    0 ROOT
