@<TRIPOS>MOLECULE
molecule
   26    26     1     0     0
SMALL
bcc


@<TRIPOS>ATOM
      1 C1           0.0000     0.0000     0.0000 ca         1 5PV      -0.062300
      2 C2           1.3810     0.0000     0.0000 ca         1 5PV      -0.128000
      3 C3           2.0730     0.0000     1.1960 ca         1 5PV      -0.132000
      4 C4           1.3820    -0.0010     2.3940 ca         1 5PV      -0.147000
      5 C5           0.0010     0.0000     2.3940 ca         1 5PV      -0.132000
      6 C6          -0.6910     0.0050     1.1970 ca         1 5PV      -0.128000
      7 C7          -0.7540     0.0010    -1.3050 c3         1 5PV      -0.042100
      8 C8          -1.0090    -1.4390    -1.7470 c3         1 5PV      -0.083400
      9 C9          -1.7740    -1.4390    -3.0720 c3         1 5PV      -0.064400
     10 C10         -2.0300    -2.8810    -3.5150 c3         1 5PV      -0.182400
     11 C11         -2.7840    -2.8790    -4.8200 c          1 5PV       0.891600
     12 O1          -3.1200    -4.0410    -5.4020 o          1 5PV      -0.857300
     13 O2          -3.0850    -1.8330    -5.3430 o          1 5PV      -0.857300
     14 H2           1.9230    -0.0020    -0.9380 ha         1 5PV       0.132000
     15 H3           3.1560    -0.0000     1.1960 ha         1 5PV       0.119000
     16 H4           1.9240    -0.0030     3.3320 ha         1 5PV       0.116000
     17 H5          -0.5410     0.0020     3.3320 ha         1 5PV       0.119000
     18 H6          -1.7740     0.0060     1.1970 ha         1 5PV       0.132000
     19 H71         -0.1680     0.5120    -2.0600 hc         1 5PV       0.047700
     20 H72         -1.7000     0.5120    -1.1750 hc         1 5PV       0.047700
     21 H81         -1.5950    -1.9500    -0.9930 hc         1 5PV       0.033700
     22 H82         -0.0630    -1.9500    -1.8770 hc         1 5PV       0.033700
     23 H91         -1.1890    -0.9280    -3.8270 hc         1 5PV       0.044700
     24 H92         -2.7200    -0.9280    -2.9420 hc         1 5PV       0.044700
     25 H101        -1.0840    -3.3920    -3.6450 hc         1 5PV       0.027700
     26 H102        -2.6160    -3.3920    -2.7600 hc         1 5PV       0.027700
@<TRIPOS>BOND
     1     1     2 ar
     2     1     6 ar
     3     1     7 1
     4     2     3 ar
     5     2    14 1
     6     3     4 ar
     7     3    15 1
     8     4     5 ar
     9     4    16 1
    10     5     6 ar
    11     5    17 1
    12     6    18 1
    13     7     8 1
    14     7    19 1
    15     7    20 1
    16     8     9 1
    17     8    21 1
    18     8    22 1
    19     9    10 1
    20     9    23 1
    21     9    24 1
    22    10    11 1
    23    10    25 1
    24    10    26 1
    25    11    12 1
    26    11    13 1
@<TRIPOS>SUBSTRUCTURE
     1 5PV         1 TEMP              0 ****  ****    0 ROOT
