@<TRIPOS>MOLECULE
molecule
   23    24     1     0     0
SMALL
bcc


@<TRIPOS>ATOM
      1 CAA          0.0000     0.0000     0.0000 c3         1 5PW      -0.173100
      2 OAB          2.1130     0.0000     1.0500 o          1 5PW      -0.530100
      3 OAC         10.6020     0.0000     0.8930 o          1 5PW      -0.203500
      4 OAD         10.3390    -0.0000    -1.2000 o          1 5PW      -0.203500
      5 CAE          7.8590     0.0000     1.3860 ca         1 5PW      -0.081000
      6 CAF          6.5000     0.0000     1.5710 ca         1 5PW      -0.077000
      7 CAG          7.5650    -0.0000    -0.9900 ca         1 5PW      -0.016000
      8 NAH          4.2800    -0.0000     0.4480 nc         1 5PW      -0.540100
      9 NAI          2.1820    -0.0000    -1.1670 ns         1 5PW      -0.512400
     10 SAJ          4.8700    -0.0000    -1.9960 ss         1 5PW      -0.140100
     11 CAK          1.5070     0.0000     0.0000 c          1 5PW       0.619100
     12 CAL          8.3970    -0.0000     0.1070 ca         1 5PW      -0.155200
     13 CAM          3.6880    -0.0000    -0.6950 cd         1 5PW       0.538800
     14 CAN          5.6270    -0.0000     0.4610 ca         1 5PW       0.172400
     15 CAO          6.1830    -0.0000    -0.8210 ca         1 5PW      -0.075100
     16 HAA         -0.3610     0.8850    -0.5110 hc         1 5PW       0.065367
     17 HAAA        -0.3610    -0.8840    -0.5110 hc         1 5PW       0.065367
     18 HAAB        -0.3610    -0.0000     1.0210 hc         1 5PW       0.065367
     19 HAE          8.5180    -0.0000     2.2460 ha         1 5PW       0.172000
     20 HAF          6.0930     0.0000     2.5750 ha         1 5PW       0.168000
     21 HAG          7.9870    -0.0000    -1.9880 ha         1 5PW       0.171000
     22 HAI          1.6820    -0.0000    -2.0340 hn         1 5PW       0.374500
     23 NAP          9.8660    -0.0000    -0.0770 no         1 5PW       0.296200
@<TRIPOS>BOND
     1     1    11 1   
     2     2    11 2   
     3     3    23 1   
     4     4    23 1   
     5     5     6 ar  
     6     5    12 ar  
     7     6    14 ar  
     8     7    12 ar  
     9     7    15 ar  
    10     8    13 2   
    11     8    14 1   
    12     9    11 1   
    13     9    13 1   
    14    10    13 1   
    15    10    15 1   
    16    12    23 1   
    17    14    15 ar  
    18     1    16 1   
    19     1    17 1   
    20     1    18 1   
    21     5    19 1   
    22     6    20 1   
    23     7    21 1   
    24     9    22 1   
@<TRIPOS>SUBSTRUCTURE
     1 5PW         1 TEMP              0 ****  ****    0 ROOT
