@<TRIPOS>MOLECULE
5PW
   23    24     1     0     0
SMALL
bcc


@<TRIPOS>ATOM
      1 CAA          0.0000     0.0000     0.0000 c3         1 5PW      -0.070100
      2 OAB          2.1130     0.0000     1.0500 o          1 5PW      -0.576100
      3 OAC         10.6020     0.0000     0.8930 o          1 5PW      -0.448000
      4 OAD         10.3390    -0.0000    -1.2000 o          1 5PW      -0.448000
      5 CAE          7.8590     0.0000     1.3860 ca         1 5PW      -0.027000
      6 CAF          6.5000     0.0000     1.5710 ca         1 5PW      -0.055000
      7 CAG          7.5650    -0.0000    -0.9900 ca         1 5PW       0.057000
      8 NAH          4.2800    -0.0000     0.4480 nc         1 5PW      -0.375100
      9 NAI          2.1820    -0.0000    -1.1670 ns         1 5PW      -0.104400
     10 SAJ          4.8700    -0.0000    -1.9960 ss         1 5PW      -0.244100
     11 CAK          1.5070     0.0000     0.0000 c          1 5PW       0.533100
     12 CAL          8.3970    -0.0000     0.1070 ca         1 5PW      -0.447200
     13 CAM          3.6880    -0.0000    -0.6950 cd         1 5PW       0.379800
     14 CAN          5.6270    -0.0000     0.4610 ca         1 5PW       0.122400
     15 CAO          6.1830    -0.0000    -0.8210 ca         1 5PW      -0.049100
     16 HAA         -0.3610     0.8850    -0.5110 hc         1 5PW       0.026033
     17 HAAA        -0.3610    -0.8840    -0.5110 hc         1 5PW       0.026033
     18 HAAB        -0.3610    -0.0000     1.0210 hc         1 5PW       0.026033
     19 HAE          8.5180    -0.0000     2.2460 ha         1 5PW       0.137000
     20 HAF          6.0930     0.0000     2.5750 ha         1 5PW       0.130000
     21 HAG          7.9870    -0.0000    -1.9880 ha         1 5PW       0.139000
     22 HAI          1.6820    -0.0000    -2.0340 hn         1 5PW       0.219500
     23 NAP          9.8660    -0.0000    -0.0770 no         1 5PW       1.049200
@<TRIPOS>BOND
     1     1    11 1   
     2     1    16 1   
     3     1    17 1   
     4     1    18 1   
     5     2    11 2   
     6     3    23 1   
     7     4    23 1   
     8     5     6 ar  
     9     5    12 ar  
    10     5    19 1   
    11     6    14 ar  
    12     6    20 1   
    13     7    12 ar  
    14     7    15 ar  
    15     7    21 1   
    16     8    13 2   
    17     8    14 1   
    18     9    11 1   
    19     9    13 1   
    20     9    22 1   
    21    10    13 1   
    22    10    15 1   
    23    12    23 1   
    24    14    15 ar  
@<TRIPOS>SUBSTRUCTURE
     1 5PW         1 TEMP              0 ****  ****    0 ROOT
