@<TRIPOS>MOLECULE
5PX
   28    30     1     0     0
SMALL
bcc


@<TRIPOS>ATOM
      1 C1           0.0000     0.0000     0.0000 ca         1 5PX      -0.194000
      2 C2           1.3780     0.0000     0.0000 ca         1 5PX      -0.056000
      3 C3           2.0780     0.0000     1.1980 ca         1 5PX       0.068100
      4 C4           1.3800    -0.0120     2.3960 ca         1 5PX       0.006000
      5 C5           0.0010    -0.0240     2.3940 ca         1 5PX      -0.152500
      6 N1          -2.4730     0.0640     3.4950 n7         1 5PX      -0.574100
      7 C6          -2.8380    -0.5860     2.2190 c3         1 5PX       0.393000
      8 N2          -2.0990     0.0470     1.1310 nh         1 5PX      -0.334000
      9 C7          -0.7110     0.0060     1.2040 ca         1 5PX       0.098600
     10 O1           3.4380     0.0110     1.1960 oh         1 5PX      -0.494100
     11 S1          -0.8700    -0.1050     3.9320 sy         1 5PX       1.035200
     12 O2          -0.7140    -1.4290     4.4260 o          1 5PX      -0.576800
     13 O3          -0.5160     1.0570     4.6690 o          1 5PX      -0.576800
     14 C8          -2.5710    -0.4340    -0.1750 cx         1 5PX       0.027500
     15 C9          -2.3930     0.4960    -1.3770 cx         1 5PX      -0.067400
     16 C10         -3.7850     0.2640    -0.7880 cx         1 5PX      -0.067400
     17 H1          -0.5370    -0.0000    -0.9410 ha         1 5PX       0.145000
     18 H2           1.9180     0.0100    -0.9390 ha         1 5PX       0.110000
     19 H3           1.9190    -0.0130     3.3360 ha         1 5PX       0.120000
     20 H4          -3.1350     0.5660     4.0540 hn         1 5PX       0.359800
     21 H5          -3.8990    -0.4490     2.0480 h2         1 5PX       0.024700
     22 H6          -2.5620    -1.6320     2.2680 h2         1 5PX       0.024700
     23 H7           3.7600    -0.8750     1.2370 ho         1 5PX       0.401000
     24 H8          -2.4920    -1.4900    -0.4030 h1         1 5PX       0.061700
     25 H9          -1.9490     1.4600    -1.1600 hc         1 5PX       0.054450
     26 H10         -2.1970     0.0050    -2.3220 hc         1 5PX       0.054450
     27 H11         -4.1920     1.0870    -0.2120 hc         1 5PX       0.054450
     28 H12         -4.4410    -0.3680    -1.3740 hc         1 5PX       0.054450
@<TRIPOS>BOND
     1     1     2 ar  
     2     1     9 ar  
     3     1    17 1   
     4     2     3 ar  
     5     2    18 1   
     6     3     4 ar  
     7     3    10 1   
     8     4     5 ar  
     9     4    19 1   
    10     5     9 ar  
    11     5    11 1   
    12     6     7 1   
    13     6    11 1   
    14     6    20 1   
    15     7     8 1   
    16     7    21 1   
    17     7    22 1   
    18     8     9 1   
    19     8    14 1   
    20    10    23 1   
    21    11    12 2   
    22    11    13 2   
    23    14    15 1   
    24    14    16 1   
    25    14    24 1   
    26    15    16 1   
    27    15    25 1   
    28    15    26 1   
    29    16    27 1   
    30    16    28 1   
@<TRIPOS>SUBSTRUCTURE
     1 5PX         1 TEMP              0 ****  ****    0 ROOT
