@<TRIPOS>MOLECULE
molecule
   50    53     1     0     0
SMALL
bcc


@<TRIPOS>ATOM
      1 C10          0.0000     0.0000     0.0000 cc         1 5PZ       0.617300
      2 N12          1.3720     0.0000     0.0000 na         1 5PZ      -0.201300
      3 C13          2.2320     0.0010    -1.1870 c3         1 5PZ       0.092300
      4 C17          4.7860     1.5500    -2.6790 ca         1 5PZ      -0.116000
      5 C21          3.6640     1.3540    -5.1990 ca         1 5PZ       0.026400
      6 C24          1.8060     0.0000     1.3250 ca         1 5PZ      -0.032200
      7 C26          3.1970     0.0010     3.2760 ca         1 5PZ      -0.128000
      8 C28          0.8120     0.0010     3.5170 ca         1 5PZ      -0.129000
      9 C02         -3.6330    -1.6660     2.2460 ca         1 5PZ      -0.078300
     10 C03         -4.0680    -2.9680     2.4120 ca         1 5PZ      -0.126000
     11 C04         -3.1820    -4.0170     2.2550 ca         1 5PZ      -0.121000
     12 C05         -1.8610    -3.7650     1.9320 ca         1 5PZ      -0.129000
     13 C06         -1.4260    -2.4640     1.7670 ca         1 5PZ      -0.104000
     14 C07         -2.3140    -1.4140     1.9180 ca         1 5PZ      -0.124300
     15 C08         -1.8420     0.0040     1.7290 c3         1 5PZ       0.123600
     16 N09         -0.4420     0.0010     1.2990 na         1 5PZ      -0.257300
     17 N11         -0.7610     0.0050    -1.0620 n2         1 5PZ      -0.916100
     18 C14          2.5300     1.4440    -1.5990 c3         1 5PZ       0.171400
     19 O15          1.3050     2.1170    -1.8970 oh         1 5PZ      -0.573800
     20 C16          3.4140     1.4440    -2.8190 ca         1 5PZ      -0.122300
     21 C18          5.5970     1.5560    -3.7980 ca         1 5PZ      -0.118000
     22 C19          5.0370     1.4580    -5.0590 ca         1 5PZ       0.034400
     23 Cl1          6.0560     1.4670    -6.4650 cl         1 5PZ      -0.086400
     24 C23          2.8530     1.3410    -4.0790 ca         1 5PZ      -0.084000
     25 C25          3.0690     0.0010     1.9020 ca         1 5PZ      -0.136000
     26 C27          2.0720     0.0010     4.0820 ca         1 5PZ      -0.129000
     27 C29          0.6720     0.0000     2.1370 ca         1 5PZ      -0.031200
     28 H1           1.7270    -0.5090    -1.9980 h1         1 5PZ       0.078200
     29 H2           3.1600    -0.5090    -0.9610 h1         1 5PZ       0.078200
     30 H3           5.2250     1.6260    -1.6920 ha         1 5PZ       0.137000
     31 H4           4.1830     0.0010     3.7260 ha         1 5PZ       0.134000
     32 H5          -0.0670     0.0010     4.1510 ha         1 5PZ       0.136000
     33 H6          -5.5580    -0.9040     2.7440 hc         1 5PZ       0.044033
     34 H7          -4.7190    -0.0070     1.4710 hc         1 5PZ       0.044033
     35 H8          -4.2130     0.1690     3.1570 hc         1 5PZ       0.044033
     36 H9          -5.1030    -3.1650     2.6650 ha         1 5PZ       0.132000
     37 H10         -3.5230    -5.0370     2.3850 ha         1 5PZ       0.130000
     38 H11         -1.1670    -4.5880     1.8120 ha         1 5PZ       0.132000
     39 H12         -0.3920    -2.2660     1.5120 ha         1 5PZ       0.146000
     40 H13         -2.4500     0.4900     0.9760 h1         1 5PZ       0.067200
     41 H14         -1.9300     0.5420     2.6660 h1         1 5PZ       0.067200
     42 H15         -1.7570     0.0080    -0.9650 hn         1 5PZ       0.408400
     43 H17          3.0340     1.9550    -0.7870 h1         1 5PZ       0.043700
     44 H18          1.4140     3.0430    -1.7570 ho         1 5PZ       0.403000
     45 H19          6.6720     1.6390    -3.6870 ha         1 5PZ       0.150000
     46 H20          1.7790     1.2580    -4.1890 ha         1 5PZ       0.175000
     47 H21          3.9520     0.0010     1.2740 ha         1 5PZ       0.129000
     48 H22          2.1800     0.0010     5.1600 ha         1 5PZ       0.135000
     49 Cl2          2.9600     1.2220    -6.7820 cl         1 5PZ      -0.083400
     50 C01         -4.5990    -0.5210     2.4160 c3         1 5PZ      -0.050800
@<TRIPOS>BOND
     1    21     4 ar
     2    21    22 ar
     3     4    20 ar
     4    23    22 1
     5    22     5 ar
     6     7    25 ar
     7     7    26 ar
     8    20    18 1
     9    20    24 ar
    10    25     6 ar
    11    18    19 1
    12    18     3 1
    13     5    24 ar
    14     5    49 1
    15    26     8 ar
    16     6    27 ar
    17     6     2 1
    18     8    27 ar
    19     3     2 1
    20    27    16 1
    21     2     1 1
    22    50     9 1
    23    10    11 ar
    24    10     9 ar
    25    11    12 ar
    26     9    14 ar
    27     1    16 1
    28     1    17 2
    29    16    15 1
    30    14    13 ar
    31    14    15 1
    32    12    13 ar
    33     3    28 1
    34     3    29 1
    35     4    30 1
    36     7    31 1
    37     8    32 1
    38    50    33 1
    39    50    34 1
    40    50    35 1
    41    10    36 1
    42    11    37 1
    43    12    38 1
    44    13    39 1
    45    15    40 1
    46    15    41 1
    47    17    42 1
    48    18    43 1
    49    19    44 1
    50    21    45 1
    51    24    46 1
    52    25    47 1
    53    26    48 1
@<TRIPOS>SUBSTRUCTURE
     1 5PZ         1 TEMP              0 ****  ****    0 ROOT
