@<TRIPOS>MOLECULE
5PZ
   50    53     1     0     0
SMALL
bcc


@<TRIPOS>ATOM
      1 C10          0.0000     0.0000     0.0000 cc         1 5PZ       0.298300
      2 N12          1.3720     0.0000     0.0000 na         1 5PZ       0.161700
      3 C13          2.2320     0.0010    -1.1870 c3         1 5PZ      -0.005700
      4 C17          4.7860     1.5500    -2.6790 ca         1 5PZ      -0.082000
      5 C21          3.6640     1.3540    -5.1990 ca         1 5PZ      -0.043600
      6 C24          1.8060     0.0000     1.3250 ca         1 5PZ      -0.183200
      7 C26          3.1970     0.0010     3.2760 ca         1 5PZ      -0.103000
      8 C28          0.8120     0.0010     3.5170 ca         1 5PZ      -0.091000
      9 C02         -3.6330    -1.6660     2.2460 ca         1 5PZ      -0.080300
     10 C03         -4.0680    -2.9680     2.4120 ca         1 5PZ      -0.098000
     11 C04         -3.1820    -4.0170     2.2550 ca         1 5PZ      -0.100000
     12 C05         -1.8610    -3.7650     1.9320 ca         1 5PZ      -0.100000
     13 C06         -1.4260    -2.4640     1.7670 ca         1 5PZ      -0.097000
     14 C07         -2.3140    -1.4140     1.9180 ca         1 5PZ      -0.111300
     15 C08         -1.8420     0.0040     1.7290 c3         1 5PZ       0.054600
     16 N09         -0.4420     0.0010     1.2990 na         1 5PZ       0.225700
     17 N11         -0.7610     0.0050    -1.0620 n2         1 5PZ      -0.822100
     18 C14          2.5300     1.4440    -1.5990 c3         1 5PZ       0.224400
     19 O15          1.3050     2.1170    -1.8970 oh         1 5PZ      -0.577800
     20 C16          3.4140     1.4440    -2.8190 ca         1 5PZ      -0.134300
     21 C18          5.5970     1.5560    -3.7980 ca         1 5PZ      -0.091000
     22 C19          5.0370     1.4580    -5.0590 ca         1 5PZ      -0.035600
     23 Cl1          6.0560     1.4670    -6.4650 cl         1 5PZ       0.000600
     24 C23          2.8530     1.3410    -4.0790 ca         1 5PZ      -0.062000
     25 C25          3.0690     0.0010     1.9020 ca         1 5PZ      -0.099000
     26 C27          2.0720     0.0010     4.0820 ca         1 5PZ      -0.099000
     27 C29          0.6720     0.0000     2.1370 ca         1 5PZ      -0.175200
     28 H1           3.1600    -0.5090    -0.9610 h1         1 5PZ       0.041700
     29 H2           1.7270    -0.5090    -1.9980 h1         1 5PZ       0.041700
     30 H3           5.2250     1.6260    -1.6920 ha         1 5PZ       0.109000
     31 H4           4.1830     0.0010     3.7260 ha         1 5PZ       0.104000
     32 H5          -0.0670     0.0010     4.1510 ha         1 5PZ       0.110000
     33 H6          -4.2330     0.1480     3.1860 hc         1 5PZ       0.009367
     34 H7          -5.5690    -0.9080     2.7040 hc         1 5PZ       0.009367
     35 H8          -4.6880     0.0180     1.4810 hc         1 5PZ       0.009367
     36 H9          -5.1030    -3.1650     2.6650 ha         1 5PZ       0.106000
     37 H10         -3.5230    -5.0370     2.3850 ha         1 5PZ       0.101000
     38 H11         -1.1670    -4.5880     1.8120 ha         1 5PZ       0.102000
     39 H12         -0.3920    -2.2660     1.5120 ha         1 5PZ       0.115000
     40 H13         -1.9300     0.5420     2.6660 h1         1 5PZ       0.044200
     41 H14         -2.4500     0.4900     0.9760 h1         1 5PZ       0.044200
     42 H15         -0.3480     0.0070    -1.9740 hn         1 5PZ       0.340400
     43 H17          3.0340     1.9540    -0.7870 h1         1 5PZ       0.015700
     44 H18          1.4140     3.0430    -1.7570 ho         1 5PZ       0.401000
     45 H19          6.6720     1.6390    -3.6870 ha         1 5PZ       0.119000
     46 H20          1.7790     1.2580    -4.1890 ha         1 5PZ       0.135000
     47 H21          3.9520     0.0010     1.2740 ha         1 5PZ       0.102000
     48 H22          2.1800     0.0010     5.1600 ha         1 5PZ       0.105000
     49 Cl2          2.9600     1.2220    -6.7820 cl         1 5PZ       0.003600
     50 C01         -4.5990    -0.5210     2.4160 c3         1 5PZ       0.058200
@<TRIPOS>BOND
     1     1     2 1   
     2     1    16 1   
     3     1    17 2   
     4     2     3 1   
     5     2     6 1   
     6     3    18 1   
     7     3    28 1   
     8     3    29 1   
     9     4    20 ar  
    10     4    21 ar  
    11     4    30 1   
    12     5    22 ar  
    13     5    24 ar  
    14     5    49 1   
    15     6    25 ar  
    16     6    27 ar  
    17     7    25 ar  
    18     7    26 ar  
    19     7    31 1   
    20     8    26 ar  
    21     8    27 ar  
    22     8    32 1   
    23     9    10 ar  
    24     9    14 ar  
    25     9    50 1   
    26    10    11 ar  
    27    10    36 1   
    28    11    12 ar  
    29    11    37 1   
    30    12    13 ar  
    31    12    38 1   
    32    13    14 ar  
    33    13    39 1   
    34    14    15 1   
    35    15    16 1   
    36    15    40 1   
    37    15    41 1   
    38    16    27 1   
    39    17    42 1   
    40    18    19 1   
    41    18    20 1   
    42    18    43 1   
    43    19    44 1   
    44    20    24 ar  
    45    21    22 ar  
    46    21    45 1   
    47    22    23 1   
    48    24    46 1   
    49    25    47 1   
    50    26    48 1   
    51    33    50 1   
    52    34    50 1   
    53    35    50 1   
@<TRIPOS>SUBSTRUCTURE
     1 5PZ         1 TEMP              0 ****  ****    0 ROOT
