@<TRIPOS>MOLECULE
molecule
   18    19     1     0     0
SMALL
bcc


@<TRIPOS>ATOM
      1 C2           0.0000     0.0000     0.0000 ca         1 5Q0      -0.179300
      2 C3           1.4050     0.0000     0.0000 ca         1 5Q0       0.433600
      3 C4           2.0960     0.0000     1.2360 ca         1 5Q0      -0.173300
      4 C5           3.5020     0.0010     1.2320 ca         1 5Q0      -0.061000
      5 C6           4.1440     0.0010     0.0250 ca         1 5Q0      -0.267300
      6 C7           3.4040     0.0000    -1.1550 ca         1 5Q0       0.439200
      7 C9          -0.0100     0.0000     2.3980 ca         1 5Q0      -0.183000
      8 C1          -0.6810    -0.0000     1.1790 ca         1 5Q0      -0.101000
      9 N1           2.0930     0.0010    -1.1460 nb         1 5Q0      -0.685000
     10 C8           1.3660     0.0010     2.4420 ca         1 5Q0       0.131100
     11 O1           2.0140     0.0000     3.6350 oh         1 5Q0      -0.514100
     12 H1          -0.5410    -0.0010    -0.9380 ha         1 5Q0       0.150000
     13 H2           4.0620     0.0020     2.1600 ha         1 5Q0       0.152000
     14 H3           5.2270     0.0010    -0.0130 ha         1 5Q0       0.139000
     15 H4           3.9260     0.0000    -2.1040 h4         1 5Q0       0.023100
     16 H5          -0.5760     0.0000     3.3220 ha         1 5Q0       0.138000
     17 H6          -1.7650    -0.0010     1.1670 ha         1 5Q0       0.135000
     18 H7           1.7970     0.7840     4.1110 ho         1 5Q0       0.423000
@<TRIPOS>BOND
     1     9     6 ar  
     2     9     2 ar  
     3     6     5 ar  
     4     1     2 ar  
     5     1     8 ar  
     6     2     3 ar  
     7     5     4 ar  
     8     8     7 ar  
     9     3     4 ar  
    10     3    10 ar  
    11     7    10 ar  
    12    10    11 1   
    13     1    12 1   
    14     4    13 1   
    15     5    14 1   
    16     6    15 1   
    17     7    16 1   
    18     8    17 1   
    19    11    18 1   
@<TRIPOS>SUBSTRUCTURE
     1 5Q0         1 TEMP              0 ****  ****    0 ROOT
