@<TRIPOS>MOLECULE
molecule
   33    33     1     0     0
SMALL
bcc


@<TRIPOS>ATOM
      1 CAG          0.0000     0.0000     0.0000 ca         1 5Q1      -0.162500
      2 CAI          1.3790     0.0000     0.0000 ca         1 5Q1      -0.106000
      3 CAS          2.0750     0.0000     1.2100 ca         1 5Q1      -0.127600
      4 CAO          3.5520     0.0010     1.2170 c          1 5Q1       0.890200
      5 OAE          4.1640     0.0010     0.1680 o          1 5Q1      -0.857800
      6 OAA          4.2200     0.0000     2.3880 o          1 5Q1      -0.857800
      7 CAJ          1.3680     0.0000     2.4140 ca         1 5Q1      -0.106000
      8 CAH         -0.0110    -0.0000     2.4000 ca         1 5Q1      -0.162500
      9 CAR         -0.6950    -0.0000     1.1970 ca         1 5Q1      -0.090300
     10 CAM         -2.2020     0.0050     1.1900 c3         1 5Q1      -0.013100
     11 CAT         -2.7180    -1.4290     1.3260 c3         1 5Q1      -0.166700
     12 CAP         -4.2170    -1.4110     1.4710 c          1 5Q1       0.891600
     13 OAF         -4.8250    -2.2960     2.2770 o          1 5Q1      -0.864800
     14 OAB         -4.8740    -0.6010     0.8600 o          1 5Q1      -0.864800
     15 CAL         -2.3340    -2.2290     0.0810 c3         1 5Q1      -0.044400
     16 CAK         -2.7400    -3.6920     0.2700 c3         1 5Q1      -0.140400
     17 CAQ         -2.3620    -4.4820    -0.9560 c          1 5Q1       0.665100
     18 OAC         -1.8210    -3.9290    -1.8910 o          1 5Q1      -0.587100
     19 NAN         -2.6250    -5.8020    -1.0160 ns         1 5Q1      -0.488400
     20 OAD         -2.2700    -6.5440    -2.1690 oh         1 5Q1      -0.385100
     21 H1          -0.5400     0.0000    -0.9390 ha         1 5Q1       0.110500
     22 H2           1.9220     0.0000    -0.9380 ha         1 5Q1       0.136000
     23 H4           1.9010     0.0000     3.3570 ha         1 5Q1       0.136000
     24 H5          -0.5610    -0.0010     3.3340 ha         1 5Q1       0.110500
     25 H6          -2.5650     0.6000     2.0190 hc         1 5Q1       0.044200
     26 H7          -2.5570     0.4300     0.2590 hc         1 5Q1       0.044200
     27 H8          -2.2760    -1.8890     2.2020 hc         1 5Q1       0.047700
     28 H10         -1.2630    -2.1690    -0.0720 hc         1 5Q1       0.053200
     29 H11         -2.8460    -1.8220    -0.7820 hc         1 5Q1       0.053200
     30 H12         -2.2280    -4.1000     1.1340 hc         1 5Q1       0.077700
     31 H13         -3.8110    -3.7530     0.4230 hc         1 5Q1       0.077700
     32 H14         -3.0700    -6.2590    -0.2440 hn         1 5Q1       0.313500
     33 H15         -2.5210    -7.4450    -2.0530 ho         1 5Q1       0.376000
@<TRIPOS>BOND
     1     5     4 1
     2     4     6 1
     3     4     3 1
     4     2     3 ar
     5     2     1 ar
     6     3     7 ar
     7     1     9 ar
     8     7     8 ar
     9    18    17 2
    10     9     8 ar
    11     9    10 1
    12    16    15 1
    13    16    17 1
    14    15    11 1
    15    17    19 1
    16    10    11 1
    17    11    12 1
    18    19    20 1
    19    14    12 1
    20    12    13 1
    21     1    21 1
    22     2    22 1
    23     7    23 1
    24     8    24 1
    25    10    25 1
    26    10    26 1
    27    11    27 1
    28    15    28 1
    29    15    29 1
    30    16    30 1
    31    16    31 1
    32    19    32 1
    33    20    33 1
@<TRIPOS>SUBSTRUCTURE
     1 5Q1         1 TEMP              0 ****  ****    0 ROOT
