@<TRIPOS>MOLECULE
5Q2
   61    64     1     0     0
SMALL
bcc


@<TRIPOS>ATOM
      1 C4           0.0000     0.0000     0.0000 c3         1 5Q2       0.136300
      2 C6          -0.0010    -1.1810     2.1130 c3         1 5Q2       0.136300
      3 C11         -4.6480    -1.3990     0.6060 ca         1 5Q2      -0.110400
      4 C7           1.5300    -1.1800     2.1130 c3         1 5Q2       0.152800
      5 C8          -1.8840    -1.2540     0.6860 ca         1 5Q2       0.007600
      6 C9          -2.5440    -1.2660    -0.5360 ca         1 5Q2      -0.134500
      7 C10         -3.9220    -1.3380    -0.5760 ca         1 5Q2      -0.089500
      8 C12         -3.9890    -1.3870     1.8280 ca         1 5Q2      -0.089500
      9 C13         -2.6110    -1.3150     1.8680 ca         1 5Q2      -0.134500
     10 N2           2.0180     0.0000     1.3870 n3         1 5Q2      -0.549600
     11 C3           1.5310     0.0000     0.0000 c3         1 5Q2       0.152800
     12 C1           3.4830     0.0770     1.4300 c3         1 5Q2       0.189100
     13 N5          -0.4870    -1.1810     0.7270 nh         1 5Q2      -0.365000
     14 C15         -6.7120    -2.2230     1.4610 c          1 5Q2       0.648300
     15 O16         -6.1050    -2.7760     2.3590 o          1 5Q2      -0.713100
     16 C17         -8.1660    -2.3790     1.3530 cc         1 5Q2      -0.463400
     17 C18         -8.9300    -2.7680     2.4680 cd         1 5Q2       0.196000
     18 C19        -10.3220    -2.9050     2.3180 cd         1 5Q2      -0.277000
     19 C20        -10.8990    -2.6650     1.1220 cc         1 5Q2      -0.088400
     20 N21        -10.1640    -2.2890     0.0440 ns         1 5Q2       0.068900
     21 C23         -8.8290    -2.1350     0.1270 c          1 5Q2       0.633700
     22 O24         -8.1910    -1.7980    -0.8560 o          1 5Q2      -0.737500
     23 N25         -8.3270    -3.0090     3.6800 nu         1 5Q2      -0.378000
     24 C26         -9.1460    -3.2880     4.8620 c3         1 5Q2       0.145800
     25 C27         -8.2360    -3.5200     6.0710 c3         1 5Q2       0.023900
     26 C28         -9.0780    -3.8070     7.2860 ca         1 5Q2      -0.095300
     27 C29         -9.4280    -5.1090     7.5920 ca         1 5Q2      -0.085000
     28 C30        -10.2010    -5.3730     8.7080 ca         1 5Q2      -0.096000
     29 C31        -10.6240    -4.3340     9.5180 ca         1 5Q2      -0.034600
     30 C32        -10.2740    -3.0320     9.2110 ca         1 5Q2      -0.096000
     31 C33         -9.4960    -2.7690     8.0990 ca         1 5Q2      -0.085000
     32 Cl         -11.5950    -4.6650    10.9180 cl         1 5Q2      -0.024400
     33 H1          -0.3600     0.8970     0.4880 h1         1 5Q2       0.023700
     34 H2          -0.3600    -0.0320    -1.0210 h1         1 5Q2       0.023700
     35 H3          -0.3600    -2.0680     2.6210 h1         1 5Q2       0.023700
     36 H4          -0.3620    -0.2950     2.6220 h1         1 5Q2       0.023700
     37 H5           1.8890    -1.1490     3.1350 h1         1 5Q2       0.014200
     38 H6           1.8900    -2.0780     1.6250 h1         1 5Q2       0.014200
     39 H7          -1.9770    -1.2190    -1.4580 ha         1 5Q2       0.116000
     40 H8          -4.4360    -1.3470    -1.5290 ha         1 5Q2       0.123000
     41 H9          -4.5560    -1.4340     2.7490 ha         1 5Q2       0.123000
     42 H10         -2.0970    -1.3050     2.8210 ha         1 5Q2       0.116000
     43 H12          1.8910     0.8860    -0.5080 h1         1 5Q2       0.014200
     44 H13          1.8910    -0.8860    -0.5080 h1         1 5Q2       0.014200
     45 H14          3.9050    -0.7940     0.9420 h1         1 5Q2      -0.000300
     46 H15          3.8140     0.1090     2.4610 h1         1 5Q2      -0.000300
     47 H16          3.8130     0.9720     0.9170 h1         1 5Q2      -0.000300
     48 H17         -6.5540    -0.9170    -0.1010 hn         1 5Q2       0.209500
     49 H19        -10.9300    -3.2030     3.1630 ha         1 5Q2       0.134000
     50 H20        -11.9720    -2.7770     1.0190 h4         1 5Q2       0.119000
     51 H21         -7.3290    -3.0270     3.7470 hn         1 5Q2       0.363800
     52 H22         -9.7980    -2.4450     5.0570 h1         1 5Q2       0.020700
     53 H23         -9.7440    -4.1740     4.6860 h1         1 5Q2       0.020700
     54 H24         -7.5840    -4.3630     5.8760 hc         1 5Q2       0.029200
     55 H25         -7.6380    -2.6340     6.2470 hc         1 5Q2       0.029200
     56 H26         -9.0970    -5.9220     6.9580 ha         1 5Q2       0.110500
     57 H27        -10.4750    -6.3930     8.9480 ha         1 5Q2       0.116000
     58 H28        -10.6030    -2.2180     9.8460 ha         1 5Q2       0.116000
     59 H29         -9.2220    -1.7490     7.8580 ha         1 5Q2       0.110500
     60 H11        -10.6240    -2.1170    -0.8280 hn         1 5Q2       0.169500
     61 N14         -6.0470    -1.4660     0.5650 ns         1 5Q2      -0.022100
@<TRIPOS>BOND
     1     1    11 1   
     2     1    13 1   
     3     1    33 1   
     4     1    34 1   
     5     2     4 1   
     6     2    13 1   
     7     2    35 1   
     8     2    36 1   
     9     3     7 ar  
    10     3     8 ar  
    11     3    61 1   
    12     4    10 1   
    13     4    37 1   
    14     4    38 1   
    15     5     6 ar  
    16     5     9 ar  
    17     5    13 1   
    18     6     7 ar  
    19     6    39 1   
    20     7    40 1   
    21     8     9 ar  
    22     8    41 1   
    23     9    42 1   
    24    10    11 1   
    25    10    12 1   
    26    11    43 1   
    27    11    44 1   
    28    12    45 1   
    29    12    46 1   
    30    12    47 1   
    31    14    15 2   
    32    14    16 1   
    33    14    61 1   
    34    16    17 2   
    35    16    21 1   
    36    17    18 1   
    37    17    23 1   
    38    18    19 2   
    39    18    49 1   
    40    19    20 1   
    41    19    50 1   
    42    20    21 1   
    43    20    60 1   
    44    21    22 2   
    45    23    24 1   
    46    23    51 1   
    47    24    25 1   
    48    24    52 1   
    49    24    53 1   
    50    25    26 1   
    51    25    54 1   
    52    25    55 1   
    53    26    27 ar  
    54    26    31 ar  
    55    27    28 ar  
    56    27    56 1   
    57    28    29 ar  
    58    28    57 1   
    59    29    30 ar  
    60    29    32 1   
    61    30    31 ar  
    62    30    58 1   
    63    31    59 1   
    64    48    61 1   
@<TRIPOS>SUBSTRUCTURE
     1 5Q2         1 TEMP              0 ****  ****    0 ROOT
