@<TRIPOS>MOLECULE
5Q3
   55    58     1     0     0
SMALL
bcc


@<TRIPOS>ATOM
      1 C4           0.0000     0.0000     0.0000 c3         1 5Q3       0.135800
      2 C6           0.0000    -1.1810     2.1120 c3         1 5Q3       0.135800
      3 C11         -4.6480    -1.3990     0.6050 ca         1 5Q3      -0.113400
      4 C7           1.5310    -1.1810     2.1120 c3         1 5Q3       0.152800
      5 C8          -1.8830    -1.2540     0.6850 ca         1 5Q3       0.006600
      6 C9          -2.5430    -1.2650    -0.5360 ca         1 5Q3      -0.132000
      7 C10         -3.9220    -1.3380    -0.5770 ca         1 5Q3      -0.097000
      8 C12         -3.9890    -1.3870     1.8280 ca         1 5Q3      -0.097000
      9 C13         -2.6110    -1.3150     1.8670 ca         1 5Q3      -0.132000
     10 N2           2.0180     0.0000     1.3870 n3         1 5Q3      -0.549600
     11 C3           1.5300     0.0000     0.0000 c3         1 5Q3       0.152800
     12 C1           3.4840     0.0760     1.4290 c3         1 5Q3       0.189100
     13 N5          -0.4870    -1.1810     0.7270 nh         1 5Q3      -0.365000
     14 C15         -6.7220    -0.8570    -0.4300 c          1 5Q3       0.618300
     15 O16         -6.1150    -0.3430    -1.3510 o          1 5Q3      -0.680100
     16 C17         -8.1880    -0.8120    -0.4020 cc         1 5Q3      -0.347400
     17 C18         -8.9210    -0.6050    -1.5830 cd         1 5Q3       0.160000
     18 C19        -10.3250    -0.5760    -1.5100 cd         1 5Q3      -0.235000
     19 C20        -10.9430    -0.7460    -0.3200 cc         1 5Q3      -0.114400
     20 N21        -10.2360    -0.9470     0.8220 ns         1 5Q3       0.094900
     21 C23         -8.8910    -0.9850     0.8140 c          1 5Q3       0.607700
     22 O24         -8.2800    -1.1710     1.8530 o          1 5Q3      -0.722500
     23 N25         -8.2770    -0.4330    -2.7880 nu         1 5Q3      -0.300700
     24 C26         -8.5410    -1.2940    -3.8460 ca         1 5Q3       0.569200
     25 C27         -9.3540    -2.4130    -3.6610 ca         1 5Q3      -0.499600
     26 C28         -9.5900    -3.2420    -4.7410 ca         1 5Q3       0.528200
     27 N29         -9.0400    -2.9520    -5.9120 nb         1 5Q3      -0.739000
     28 C30         -8.2720    -1.8830    -6.0580 ca         1 5Q3       0.744900
     29 N31         -8.0270    -1.0610    -5.0490 nb         1 5Q3      -0.743000
     30 N32         -7.7170    -1.6150    -7.2960 nv         1 5Q3      -0.500500
     31 H1          -0.3600     0.8970     0.4890 h1         1 5Q3       0.024450
     32 H2          -0.3600    -0.0310    -1.0210 h1         1 5Q3       0.024450
     33 H3          -0.3600    -2.0680     2.6210 h1         1 5Q3       0.024450
     34 H4          -0.3600    -0.2950     2.6210 h1         1 5Q3       0.024450
     35 H5           1.8910    -2.0780     1.6230 h1         1 5Q3       0.013950
     36 H6           1.8910    -1.1510     3.1340 h1         1 5Q3       0.013950
     37 H7          -1.9760    -1.2180    -1.4580 ha         1 5Q3       0.117000
     38 H8          -4.4360    -1.3470    -1.5310 ha         1 5Q3       0.130000
     39 H9          -4.5560    -1.4350     2.7490 ha         1 5Q3       0.130000
     40 H10         -2.0960    -1.3060     2.8210 ha         1 5Q3       0.117000
     41 H12          1.8910    -0.8860    -0.5080 h1         1 5Q3       0.013950
     42 H13          1.8910     0.8860    -0.5080 h1         1 5Q3       0.013950
     43 H14          3.8140     0.1090     2.4600 h1         1 5Q3      -0.000300
     44 H15          3.8140     0.9720     0.9160 h1         1 5Q3      -0.000300
     45 H16          3.9060    -0.7950     0.9420 h1         1 5Q3      -0.000300
     46 H17         -6.5480    -1.8890     1.3200 hn         1 5Q3       0.210500
     47 H18        -10.9110    -0.4180    -2.4070 ha         1 5Q3       0.141000
     48 H19        -12.0260    -0.7220    -0.2770 h4         1 5Q3       0.127000
     49 H20        -10.7250    -1.0690     1.6870 hn         1 5Q3       0.173500
     50 H21         -7.6500     0.3370    -2.9150 hn         1 5Q3       0.331800
     51 H22         -9.7910    -2.6260    -2.6930 ha         1 5Q3       0.134000
     52 H23        -10.2160    -4.1190    -4.6320 h4         1 5Q3      -0.023900
     53 H24         -7.3170    -0.7160    -7.4820 hn         1 5Q3       0.274800
     54 H25         -7.7110    -2.3210    -8.0060 hn         1 5Q3       0.274800
     55 N14         -6.0470    -1.4660     0.5640 ns         1 5Q3      -0.019100
@<TRIPOS>BOND
     1     1    11 1   
     2     1    13 1   
     3     1    31 1   
     4     1    32 1   
     5     2     4 1   
     6     2    13 1   
     7     2    33 1   
     8     2    34 1   
     9     3     7 ar  
    10     3     8 ar  
    11     3    55 1   
    12     4    10 1   
    13     4    35 1   
    14     4    36 1   
    15     5     6 ar  
    16     5     9 ar  
    17     5    13 1   
    18     6     7 ar  
    19     6    37 1   
    20     7    38 1   
    21     8     9 ar  
    22     8    39 1   
    23     9    40 1   
    24    10    11 1   
    25    10    12 1   
    26    11    41 1   
    27    11    42 1   
    28    12    43 1   
    29    12    44 1   
    30    12    45 1   
    31    14    15 2   
    32    14    16 1   
    33    14    55 1   
    34    16    17 2   
    35    16    21 1   
    36    17    18 1   
    37    17    23 1   
    38    18    19 2   
    39    18    47 1   
    40    19    20 1   
    41    19    48 1   
    42    20    21 1   
    43    20    49 1   
    44    21    22 2   
    45    23    24 1   
    46    23    50 1   
    47    24    25 ar  
    48    24    29 ar  
    49    25    26 ar  
    50    25    51 1   
    51    26    27 ar  
    52    26    52 1   
    53    27    28 ar  
    54    28    29 ar  
    55    28    30 1   
    56    30    53 1   
    57    30    54 1   
    58    46    55 1   
@<TRIPOS>SUBSTRUCTURE
     1 5Q3         1 TEMP              0 ****  ****    0 ROOT
