@<TRIPOS>MOLECULE
molecule
   59    62     1     0     0
SMALL
bcc


@<TRIPOS>ATOM
      1 C4           0.0000     0.0000     0.0000 c3         1 5Q4       0.165300
      2 C6           0.0010    -1.1800     2.1130 c3         1 5Q4       0.165300
      3 C11         -4.6490    -1.3960     0.6070 ca         1 5Q4       0.036600
      4 C7           1.5300    -1.1810     2.1120 c3         1 5Q4       0.160300
      5 C8          -1.8840    -1.2530     0.6860 ca         1 5Q4       0.079600
      6 C9          -2.5440    -1.2650    -0.5360 ca         1 5Q4      -0.151000
      7 C10         -3.9220    -1.3360    -0.5750 ca         1 5Q4      -0.132500
      8 C12         -3.9890    -1.3830     1.8290 ca         1 5Q4      -0.132500
      9 C13         -2.6110    -1.3130     1.8690 ca         1 5Q4      -0.151000
     10 N2           2.0180     0.0000     1.3860 n3         1 5Q4      -0.733600
     11 C3           1.5300     0.0000     0.0000 c3         1 5Q4       0.160300
     12 C1           3.4850     0.0760     1.4280 c3         1 5Q4       0.153100
     13 N5          -0.4870    -1.1800     0.7260 nh         1 5Q4      -0.599000
     14 C15         -6.7140    -0.9780    -0.4990 c          1 5Q4       0.696300
     15 O16         -6.1000    -0.5340    -1.4520 o          1 5Q4      -0.609100
     16 C17         -8.1800    -0.9870    -0.5120 cc         1 5Q4      -0.326400
     17 C18         -8.8890    -0.6740    -1.6860 cc         1 5Q4       0.317000
     18 C19        -10.2960    -0.6930    -1.6530 cc         1 5Q4      -0.265000
     19 C20        -10.9390    -1.0100    -0.5080 cd         1 5Q4       0.026600
     20 N21        -10.2560    -1.3110     0.6270 ns         1 5Q4      -0.406100
     21 C23         -8.9100    -1.3150     0.6540 c          1 5Q4       0.706700
     22 O24         -8.3220    -1.5900     1.6860 o          1 5Q4      -0.673500
     23 N25         -8.2200    -0.3530    -2.8450 nu         1 5Q4      -0.683400
     24 C26         -8.2440     0.9600    -3.3280 ca         1 5Q4       0.186600
     25 C27         -8.7750     1.9770    -2.5480 ca         1 5Q4      -0.165000
     26 C28         -8.7970     3.2750    -3.0250 ca         1 5Q4      -0.123000
     27 C29         -8.2930     3.5610    -4.2810 ca         1 5Q4      -0.136000
     28 C30         -7.7630     2.5520    -5.0640 ca         1 5Q4      -0.181000
     29 C31         -7.7320     1.2510    -4.5900 ca         1 5Q4       0.086100
     30 O32         -7.2110     0.2580    -5.3600 os         1 5Q4      -0.338900
     31 C33         -6.7130     0.6280    -6.6480 c3         1 5Q4       0.133700
     32 H1          -0.3600     0.8970     0.4880 h1         1 5Q4       0.049450
     33 H2          -0.3600    -0.0320    -1.0210 h1         1 5Q4       0.049450
     34 H3          -0.3590    -2.0670     2.6220 h1         1 5Q4       0.049450
     35 H4          -0.3590    -0.2940     2.6210 h1         1 5Q4       0.049450
     36 H5           1.8900    -2.0780     1.6230 h1         1 5Q4       0.040950
     37 H6           1.8910    -1.1510     3.1330 h1         1 5Q4       0.040950
     38 H7          -1.9780    -1.2190    -1.4580 ha         1 5Q4       0.135500
     39 H8          -4.4360    -1.3460    -1.5280 ha         1 5Q4       0.155500
     40 H9          -4.5560    -1.4300     2.7510 ha         1 5Q4       0.155500
     41 H10         -2.0960    -1.3030     2.8220 ha         1 5Q4       0.135500
     42 H12          1.8900     0.8860    -0.5080 h1         1 5Q4       0.040950
     43 H13          1.8910    -0.8860    -0.5080 h1         1 5Q4       0.040950
     44 H14          3.8160     0.1090     2.4590 h1         1 5Q4       0.031700
     45 H15          3.8140     0.9720     0.9140 h1         1 5Q4       0.031700
     46 H16          3.9060    -0.7950     0.9400 h1         1 5Q4       0.031700
     47 H17         -6.5500    -1.8990     1.3130 hn         1 5Q4       0.360500
     48 H18        -10.8620    -0.4560    -2.5460 ha         1 5Q4       0.166000
     49 H19        -12.0220    -1.0190    -0.4930 h4         1 5Q4       0.159000
     50 H22        -10.7640    -1.5430     1.4570 hn         1 5Q4       0.340500
     51 H20         -7.7470    -1.0670    -3.3630 hn         1 5Q4       0.479800
     52 H21         -9.1700     1.7550    -1.5640 ha         1 5Q4       0.138000
     53 H23         -9.2110     4.0680    -2.4150 ha         1 5Q4       0.130000
     54 H24         -8.3150     4.5780    -4.6520 ha         1 5Q4       0.129000
     55 H25         -7.3670     2.7810    -6.0460 ha         1 5Q4       0.136000
     56 H26         -5.9170     1.3530    -6.5320 h1         1 5Q4       0.040367
     57 H27         -7.5150     1.0620    -7.2330 h1         1 5Q4       0.040367
     58 H28         -6.3310    -0.2500    -7.1530 h1         1 5Q4       0.040367
     59 N14         -6.0480    -1.4610     0.5670 ns         1 5Q4      -0.463100
@<TRIPOS>BOND
     1    31    30 1
     2    30    29 1
     3    28    29 ar
     4    28    27 ar
     5    29    24 ar
     6    18    19 2
     7    18    17 1
     8    19    20 1
     9    27    26 ar
    10    24    23 1
    11    24    25 ar
    12    23    17 1
    13    17    16 2
    14    20    21 1
    15    26    25 ar
    16    21    16 1
    17    21    22 2
    18    16    14 1
    19    15    14 2
    20    14    59 1
    21    59     3 1
    22     3     8 ar
    23     3     7 ar
    24     8     9 ar
    25     7     6 ar
    26     9     5 ar
    27     6     5 ar
    28     5    13 1
    29    13     2 1
    30    13     1 1
    31     2     4 1
    32     1    11 1
    33     4    10 1
    34    11    10 1
    35    10    12 1
    36     1    32 1
    37     1    33 1
    38     2    34 1
    39     2    35 1
    40     4    36 1
    41     4    37 1
    42     6    38 1
    43     7    39 1
    44     8    40 1
    45     9    41 1
    46    11    42 1
    47    11    43 1
    48    12    44 1
    49    12    45 1
    50    12    46 1
    51    59    47 1
    52    18    48 1
    53    19    49 1
    54    20    50 1
    55    23    51 1
    56    25    52 1
    57    26    53 1
    58    27    54 1
    59    28    55 1
    60    31    56 1
    61    31    57 1
    62    31    58 1
@<TRIPOS>SUBSTRUCTURE
     1 5Q4         1 TEMP              0 ****  ****    0 ROOT
