@<TRIPOS>MOLECULE
molecule
   22    22     1     0     0
SMALL
bcc


@<TRIPOS>ATOM
      1 N1           0.0000     0.0000     0.0000 nz         1 5Q5      -0.612400
      2 C4           5.5460     0.6260    -0.3270 ca         1 5Q5      -0.118000
      3 C5           4.1690     0.7180    -0.3230 ca         1 5Q5      -0.071000
      4 C6           3.4180    -0.0890    -1.1690 ca         1 5Q5      -0.041400
      5 C7           1.3480     0.0000     0.0000 cs         1 5Q5       0.245400
      6 S            2.2030     0.0000     1.4830 s          1 5Q5      -0.309400
      7 N            2.0220     0.0010    -1.1670 ns         1 5Q5      -0.320100
      8 C1           4.0560    -0.9850    -2.0160 ca         1 5Q5      -0.046300
      9 C            3.2450    -1.8610    -2.9360 c3         1 5Q5      -0.059800
     10 C3           6.1790    -0.2680    -1.1730 ca         1 5Q5      -0.084000
     11 C2           5.4340    -1.0720    -2.0160 ca         1 5Q5      -0.119000
     12 H1          -0.3340     0.0660     0.9410 hn         1 5Q5       0.471133
     13 H2          -0.3340    -0.8480    -0.4140 hn         1 5Q5       0.471133
     14 H5           1.5210     0.0190    -2.0330 hn         1 5Q5       0.335500
     15 H6           2.6790    -1.2400    -3.6200 hc         1 5Q5       0.052700
     16 H7           3.9090    -2.5060    -3.4990 hc         1 5Q5       0.052700
     17 H8           2.5640    -2.4670    -2.3500 hc         1 5Q5       0.052700
     18 H9           7.2600    -0.3380    -1.1760 ha         1 5Q5       0.157000
     19 H10          6.0890    -1.7090    -2.5980 ha         1 5Q5       0.163000
     20 H3           6.1320     1.2560     0.3300 ha         1 5Q5       0.159000
     21 H13         -0.3340     0.8100    -0.4840 hn         1 5Q5       0.471133
     22 H4           3.6780     1.4690     0.2850 ha         1 5Q5       0.151000
@<TRIPOS>BOND
     1     6     5 2
     2     7     5 1
     3     7     4 1
     4     5     1 1
     5     4     8 ar
     6     4     3 ar
     7     9     8 1
     8     8    11 ar
     9     3     2 ar
    10    11    10 ar
    11     2    10 ar
    12     1    12 1
    13     1    13 1
    14     2    20 1
    15     3    22 1
    16     7    14 1
    17     9    15 1
    18     9    16 1
    19     9    17 1
    20    10    18 1
    21    11    19 1
    22    21     1 1
@<TRIPOS>SUBSTRUCTURE
     1 5Q5         1 TEMP              0 ****  ****    0 ROOT
