@<TRIPOS>MOLECULE
molecule
   36    38     1     0     0
SMALL
bcc


@<TRIPOS>ATOM
      1 C1           0.0000     0.0000     0.0000 ca         1 5Q6      -0.120000
      2 C2           1.3860     0.0000     0.0000 ca         1 5Q6      -0.142000
      3 C3           2.0820     0.0000     1.1880 ca         1 5Q6      -0.075000
      4 C4           1.3900     0.0010     2.4040 ca         1 5Q6      -0.178600
      5 C5           2.1310     0.0010     3.6780 c          1 5Q6       0.495200
      6 C6           3.6070    -0.1170     3.6760 ca         1 5Q6       0.376800
      7 C7           4.3920     1.0350     3.7310 ca         1 5Q6      -0.224300
      8 C8           5.7730     0.9140     3.7280 ca         1 5Q6      -0.093000
      9 C9           6.3270    -0.3520     3.6720 ca         1 5Q6      -0.234300
     10 C10          5.4850    -1.4660     3.6200 cp         1 5Q6       0.481800
     11 C17         -0.0120     0.0010     2.4040 ca         1 5Q6       0.157100
     12 C16          5.2430    -3.9370     3.3910 ca         1 5Q6       0.157900
     13 C15          5.7990    -5.2070     3.3310 ca         1 5Q6       0.059100
     14 O2           4.9970    -6.2930     3.1610 oh         1 5Q6      -0.507100
     15 C14          7.1710    -5.3700     3.4430 ca         1 5Q6      -0.121000
     16 C13          7.9920    -4.2690     3.6150 ca         1 5Q6      -0.138000
     17 C12          7.4490    -3.0010     3.6760 ca         1 5Q6      -0.099000
     18 C11          6.0700    -2.8270     3.5590 cp         1 5Q6      -0.178500
     19 N            4.1700    -1.3180     3.6280 nb         1 5Q6      -0.652000
     20 O1           1.5300     0.0980     4.7300 o          1 5Q6      -0.476100
     21 O3          -0.6940     0.0010     3.5770 oh         1 5Q6      -0.492100
     22 C           -0.7000     0.0060     1.1940 ca         1 5Q6       0.050100
     23 O           -2.0600     0.0070     1.1850 oh         1 5Q6      -0.515100
     24 H1          -0.5390     0.0020    -0.9400 ha         1 5Q6       0.143000
     25 H2           1.9250    -0.0030    -0.9400 ha         1 5Q6       0.139000
     26 H3           3.1650     0.0000     1.1810 ha         1 5Q6       0.144000
     27 H4           3.9270     2.0120     3.7730 ha         1 5Q6       0.148000
     28 H5           6.4050     1.7930     3.7700 ha         1 5Q6       0.143000
     29 H6           7.4030    -0.4790     3.6690 ha         1 5Q6       0.142000
     30 H7           4.7980    -6.6710     4.0010 ho         1 5Q6       0.422000
     31 H8           7.6030    -6.3620     3.3950 ha         1 5Q6       0.147000
     32 H9           9.0630    -4.4020     3.7040 ha         1 5Q6       0.139000
     33 H10          8.0940    -2.1410     3.8110 ha         1 5Q6       0.139000
     34 H11         -1.1060    -0.8380     3.7020 ho         1 5Q6       0.436000
     35 H12         -2.3720     0.8630     0.9440 ho         1 5Q6       0.425000
     36 F            3.9060    -3.7760     3.2810 f          1 5Q6      -0.100900
@<TRIPOS>BOND
     1    36    12 1   
     2    14    13 1   
     3    20     5 2   
     4    12    13 ar  
     5    12    18 ar  
     6    21    11 1   
     7    13    15 ar  
     8     5     6 1   
     9     5     4 1   
    10     7     8 ar  
    11     7     6 ar  
    12     8     9 ar  
    13     6    19 ar  
    14    19    10 ar  
    15     9    10 ar  
    16    10    18 1   
    17    18    17 ar  
    18    11     4 ar  
    19    11    22 ar  
    20    15    16 ar  
    21     4     3 ar  
    22    23    22 1   
    23    17    16 ar  
    24    22     1 ar  
    25     3     2 ar  
    26     1     2 ar  
    27     1    24 1   
    28     2    25 1   
    29     3    26 1   
    30     7    27 1   
    31     8    28 1   
    32     9    29 1   
    33    14    30 1   
    34    15    31 1   
    35    16    32 1   
    36    17    33 1   
    37    21    34 1   
    38    23    35 1   
@<TRIPOS>SUBSTRUCTURE
     1 5Q6         1 TEMP              0 ****  ****    0 ROOT
