@<TRIPOS>MOLECULE
molecule
   25    25     1     0     0
SMALL
bcc


@<TRIPOS>ATOM
      1 C4           0.0000     0.0000     0.0000 ca         1 5Q9      -0.102300
      2 C5           1.3830     0.0000     0.0000 ca         1 5Q9       0.044900
      3 C6           2.0740     0.0000     1.1990 ca         1 5Q9      -0.126000
      4 C7           1.3820    -0.0000     2.3950 ca         1 5Q9      -0.109000
      5 C8           0.0000    -0.0010     2.3950 ca         1 5Q9      -0.126000
      6 O           -2.9760    -1.4180    -0.7210 o          1 5Q9      -0.599100
      7 C1          -2.1210    -2.0230    -1.3310 c          1 5Q9       0.656100
      8 C           -2.3120    -3.4830    -1.6510 c3         1 5Q9      -0.167100
      9 N           -0.9970    -1.3890    -1.7230 n          1 5Q9      -0.491800
     10 C2          -0.0200    -2.0840    -2.5650 c3         1 5Q9       0.093300
     11 C3          -0.7530    -0.0060    -1.3060 c3         1 5Q9       0.149300
     12 C9          -0.6920    -0.0010     1.1970 ca         1 5Q9       0.044900
     13 Cl          -2.4280    -0.0010     1.1980 cl         1 5Q9      -0.079400
     14 Cl1          2.2530    -0.0000    -1.5030 cl         1 5Q9      -0.079400
     15 H1           3.1580     0.0000     1.2000 ha         1 5Q9       0.147000
     16 H2           1.9240    -0.0000     3.3340 ha         1 5Q9       0.142000
     17 H3          -0.5410    -0.0010     3.3340 ha         1 5Q9       0.147000
     18 H4          -2.4020    -3.6090    -2.7230 hc         1 5Q9       0.059700
     19 H5          -1.4600    -4.0470    -1.2910 hc         1 5Q9       0.059700
     20 H6          -3.2130    -3.8430    -1.1690 hc         1 5Q9       0.059700
     21 H7           0.6730    -1.3640    -2.9840 h1         1 5Q9       0.040700
     22 H8          -0.5350    -2.5980    -3.3670 h1         1 5Q9       0.040700
     23 H9           0.5260    -2.8030    -1.9660 h1         1 5Q9       0.040700
     24 H10         -0.1670     0.5010    -2.0630 h1         1 5Q9       0.077700
     25 H11         -1.6990     0.5050    -1.1790 h1         1 5Q9       0.077700
@<TRIPOS>BOND
     1     6     7 2
     2     7     8 1
     3     7     9 1
     4    11     9 1
     5    11     1 1
     6     9    10 1
     7    14     2 1
     8     1     2 ar
     9     1    12 ar
    10    13    12 1
    11     2     3 ar
    12    12     5 ar
    13     3     4 ar
    14     5     4 ar
    15     3    15 1
    16     4    16 1
    17     5    17 1
    18     8    18 1
    19     8    19 1
    20     8    20 1
    21    10    21 1
    22    10    22 1
    23    10    23 1
    24    11    24 1
    25    11    25 1
@<TRIPOS>SUBSTRUCTURE
     1 5Q9         1 TEMP              0 ****  ****    0 ROOT
