@<TRIPOS>MOLECULE
5Q9
   25    25     1     0     0
SMALL
bcc


@<TRIPOS>ATOM
      1 C4           0.0000     0.0000     0.0000 ca         1 5Q9      -0.117300
      2 C5           1.3830     0.0000     0.0000 ca         1 5Q9      -0.024100
      3 C6           2.0740     0.0000     1.1990 ca         1 5Q9      -0.103500
      4 C7           1.3820    -0.0000     2.3950 ca         1 5Q9      -0.077000
      5 C8           0.0000    -0.0010     2.3950 ca         1 5Q9      -0.103500
      6 O           -2.9760    -1.4180    -0.7210 o          1 5Q9      -0.648100
      7 C1          -2.1210    -2.0230    -1.3310 c          1 5Q9       0.584100
      8 C           -2.3120    -3.4830    -1.6510 c3         1 5Q9      -0.071100
      9 N           -0.9970    -1.3890    -1.7230 n          1 5Q9      -0.154800
     10 C2          -0.0200    -2.0840    -2.5650 c3         1 5Q9       0.069300
     11 C3          -0.7530    -0.0060    -1.3060 c3         1 5Q9       0.096300
     12 C9          -0.6920    -0.0010     1.1970 ca         1 5Q9      -0.024100
     13 Cl          -2.4280    -0.0010     1.1980 cl         1 5Q9       0.014100
     14 Cl1          2.2530    -0.0000    -1.5030 cl         1 5Q9       0.014100
     15 H1           3.1580     0.0000     1.2000 ha         1 5Q9       0.116500
     16 H2           1.9240    -0.0000     3.3340 ha         1 5Q9       0.108000
     17 H3          -0.5410    -0.0010     3.3340 ha         1 5Q9       0.116500
     18 H4          -2.4020    -3.6090    -2.7230 hc         1 5Q9       0.024033
     19 H5          -1.4600    -4.0470    -1.2910 hc         1 5Q9       0.024033
     20 H6          -3.2130    -3.8430    -1.1690 hc         1 5Q9       0.024033
     21 H7           0.6730    -1.3640    -2.9840 h1         1 5Q9       0.012367
     22 H8          -0.5350    -2.5980    -3.3670 h1         1 5Q9       0.012367
     23 H9           0.5260    -2.8030    -1.9660 h1         1 5Q9       0.012367
     24 H10         -0.1670     0.5010    -2.0630 h1         1 5Q9       0.047700
     25 H11         -1.6990     0.5050    -1.1790 h1         1 5Q9       0.047700
@<TRIPOS>BOND
     1     1     2 ar  
     2     1    11 1   
     3     1    12 ar  
     4     2     3 ar  
     5     2    14 1   
     6     3     4 ar  
     7     3    15 1   
     8     4     5 ar  
     9     4    16 1   
    10     5    12 ar  
    11     5    17 1   
    12     6     7 2   
    13     7     8 1   
    14     7     9 1   
    15     8    18 1   
    16     8    19 1   
    17     8    20 1   
    18     9    10 1   
    19     9    11 1   
    20    10    21 1   
    21    10    22 1   
    22    10    23 1   
    23    11    24 1   
    24    11    25 1   
    25    12    13 1   
@<TRIPOS>SUBSTRUCTURE
     1 5Q9         1 TEMP              0 ****  ****    0 ROOT
