@<TRIPOS>MOLECULE
5QA
   23    23     1     0     0
SMALL
bcc


@<TRIPOS>ATOM
      1 C4           0.0000     0.0000     0.0000 ca         1 5QA      -0.073000
      2 C5           1.3830     0.0000     0.0000 ca         1 5QA      -0.100000
      3 C6           2.0740     0.0000     1.1990 ca         1 5QA      -0.018600
      4 C7           3.0400     1.6300     5.2730 c          1 5QA       0.557100
      5 C8           3.2900     3.0500     5.7070 c3         1 5QA       0.161400
      6 O1           3.4340     0.7070     5.9550 o          1 5QA      -0.612100
      7 O            4.0040     3.0510     6.9450 oh         1 5QA      -0.551800
      8 N            2.3780     1.3820     4.1250 ns         1 5QA      -0.203900
      9 C1           1.3820     0.0000     2.3960 ca         1 5QA      -0.116300
     10 Cl           3.8100    -0.0000     1.1990 cl         1 5QA      -0.002400
     11 C3          -0.6920     0.0050     1.1960 ca         1 5QA      -0.100000
     12 C2          -0.0020     0.0010     2.3950 ca         1 5QA      -0.018600
     13 Cl1         -0.8710     0.0010     3.8970 cl         1 5QA      -0.002400
     14 H1          -0.5410     0.0020    -0.9390 ha         1 5QA       0.111000
     15 H2           1.9240    -0.0020    -0.9380 ha         1 5QA       0.119000
     16 H3           2.3440     3.5610     5.8350 h1         1 5QA      -0.005300
     17 H4           3.8760     3.5600     4.9520 h1         1 5QA      -0.005300
     18 H5           4.1600     3.9400     7.2170 ho         1 5QA       0.384000
     19 H6           2.0530     2.1430     3.5610 hn         1 5QA       0.173500
     20 H7           1.5480    -0.5100     4.4560 h1         1 5QA       0.042700
     21 H8           3.0810    -0.5100     3.5730 h1         1 5QA       0.042700
     22 H9          -1.7760     0.0050     1.1950 ha         1 5QA       0.119000
     23 C            2.1340     0.0010     3.7020 c3         1 5QA       0.098300
@<TRIPOS>BOND
     1     1     2 ar  
     2     1    11 ar  
     3     1    14 1   
     4     2     3 ar  
     5     2    15 1   
     6     3     9 ar  
     7     3    10 1   
     8     4     5 1   
     9     4     6 2   
    10     4     8 1   
    11     5     7 1   
    12     5    16 1   
    13     5    17 1   
    14     7    18 1   
    15     8    19 1   
    16     8    23 1   
    17     9    12 ar  
    18     9    23 1   
    19    11    12 ar  
    20    11    22 1   
    21    12    13 1   
    22    20    23 1   
    23    21    23 1   
@<TRIPOS>SUBSTRUCTURE
     1 5QA         1 TEMP              0 ****  ****    0 ROOT
