@<TRIPOS>MOLECULE
molecule
   23    23     1     0     0
SMALL
bcc


@<TRIPOS>ATOM
      1 C4           0.0000     0.0000     0.0000 ca         1 5QA      -0.104000
      2 C5           1.3830     0.0000     0.0000 ca         1 5QA      -0.124000
      3 C6           2.0740     0.0000     1.1990 ca         1 5QA       0.046400
      4 C7           3.0400     1.6300     5.2730 c          1 5QA       0.656100
      5 C8           3.2900     3.0500     5.7070 c3         1 5QA       0.070400
      6 O1           3.4340     0.7070     5.9550 o          1 5QA      -0.571100
      7 O            4.0040     3.0510     6.9450 oh         1 5QA      -0.572800
      8 N            2.3780     1.3820     4.1250 ns         1 5QA      -0.586900
      9 C1           1.3820     0.0000     2.3960 ca         1 5QA      -0.107300
     10 Cl           3.8100    -0.0000     1.1990 cl         1 5QA      -0.085400
     11 C3          -0.6920     0.0050     1.1960 ca         1 5QA      -0.124000
     12 C2          -0.0020     0.0010     2.3950 ca         1 5QA       0.046400
     13 Cl1         -0.8710     0.0010     3.8970 cl         1 5QA      -0.085400
     14 H1          -0.5410     0.0020    -0.9390 ha         1 5QA       0.146000
     15 H2           1.9240    -0.0020    -0.9380 ha         1 5QA       0.151000
     16 H3           2.3440     3.5610     5.8350 h1         1 5QA       0.036700
     17 H4           3.8760     3.5600     4.9520 h1         1 5QA       0.036700
     18 H5           4.1600     3.9400     7.2170 ho         1 5QA       0.404000
     19 H6           2.0530     2.1430     3.5610 hn         1 5QA       0.313500
     20 H7           1.5480    -0.5100     4.4560 h1         1 5QA       0.073700
     21 H8           3.0810    -0.5100     3.5730 h1         1 5QA       0.073700
     22 H9          -1.7760     0.0050     1.1950 ha         1 5QA       0.151000
     23 C            2.1340     0.0010     3.7020 c3         1 5QA       0.158300
@<TRIPOS>BOND
     1     6     4 2
     2    23     8 1
     3    23     9 1
     4     4     8 1
     5     4     5 1
     6    10     3 1
     7     9     3 ar
     8     9    12 ar
     9     5     7 1
    10    13    12 1
    11     3     2 ar
    12    12    11 ar
    13     2     1 ar
    14    11     1 ar
    15     1    14 1
    16     2    15 1
    17     5    16 1
    18     5    17 1
    19     7    18 1
    20     8    19 1
    21    23    20 1
    22    23    21 1
    23    11    22 1
@<TRIPOS>SUBSTRUCTURE
     1 5QA         1 TEMP              0 ****  ****    0 ROOT
