@<TRIPOS>MOLECULE
5QB
   30    30     1     0     0
SMALL
bcc


@<TRIPOS>ATOM
      1 C4           0.0000     0.0000     0.0000 ca         1 5QB       0.204100
      2 C5           1.3880     0.0000     0.0000 ca         1 5QB      -0.256500
      3 C6           2.0790     0.0000     1.1960 ca         1 5QB      -0.003000
      4 C7           1.3910     0.0000     2.3950 ca         1 5QB      -0.256500
      5 C8           0.0040    -0.0000     2.4000 ca         1 5QB       0.204100
      6 C10          0.0990     0.0100    -2.3760 c3         1 5QB       0.244700
      7 O2          -4.8020     0.7030     1.2060 o          1 5QB      -0.654100
      8 C1          -4.0140     1.6260     1.2060 c          1 5QB       0.567100
      9 C           -4.5170     3.0470     1.2080 c3         1 5QB      -0.067100
     10 N           -2.6880     1.3800     1.2030 ns         1 5QB      -0.192900
     11 C3          -0.6930    -0.0000     1.2000 ca         1 5QB      -0.206300
     12 O           -0.6730    -0.0010     3.5780 os         1 5QB      -0.302900
     13 C9           0.1090    -0.0010     4.7750 c3         1 5QB       0.244700
     14 O1          -0.6790     0.0040    -1.1780 os         1 5QB      -0.302900
     15 H1           1.9300     0.0000    -0.9380 ha         1 5QB       0.125000
     16 H2           3.1630     0.0000     1.1950 ha         1 5QB       0.099000
     17 H3           1.9350     0.0000     3.3320 ha         1 5QB       0.125000
     18 H4           0.7350     0.8870    -2.3900 h1         1 5QB      -0.000800
     19 H5           0.7130    -0.8820    -2.4120 h1         1 5QB      -0.000800
     20 H6          -0.5610     0.0290    -3.2350 h1         1 5QB      -0.000800
     21 H7          -5.6000     3.0460     1.2090 hc         1 5QB       0.020367
     22 H8          -4.1570     3.5580     0.3230 hc         1 5QB       0.020367
     23 H9          -4.1550     3.5570     2.0920 hc         1 5QB       0.020367
     24 H10         -2.0380     2.1410     1.2020 hn         1 5QB       0.173500
     25 H11         -2.5590    -0.5120     2.0880 h1         1 5QB       0.035700
     26 H12         -2.5620    -0.5110     0.3190 h1         1 5QB       0.035700
     27 H13         -0.5480     0.0130     5.6360 h1         1 5QB      -0.000800
     28 H14          0.7240    -0.8920     4.8050 h1         1 5QB      -0.000800
     29 H15          0.7440     0.8770     4.7910 h1         1 5QB      -0.000800
     30 C2          -2.1990    -0.0010     1.2030 c3         1 5QB       0.129300
@<TRIPOS>BOND
     1     1     2 ar  
     2     1    11 ar  
     3     1    14 1   
     4     2     3 ar  
     5     2    15 1   
     6     3     4 ar  
     7     3    16 1   
     8     4     5 ar  
     9     4    17 1   
    10     5    11 ar  
    11     5    12 1   
    12     6    14 1   
    13     6    18 1   
    14     6    19 1   
    15     6    20 1   
    16     7     8 2   
    17     8     9 1   
    18     8    10 1   
    19     9    21 1   
    20     9    22 1   
    21     9    23 1   
    22    10    24 1   
    23    10    30 1   
    24    11    30 1   
    25    12    13 1   
    26    13    27 1   
    27    13    28 1   
    28    13    29 1   
    29    25    30 1   
    30    26    30 1   
@<TRIPOS>SUBSTRUCTURE
     1 5QB         1 TEMP              0 ****  ****    0 ROOT
