@<TRIPOS>MOLECULE
5QC
   70    71     1     0     0
SMALL
bcc


@<TRIPOS>ATOM
      1 F           2.5300   -0.9540    1.9640 f         1 5QC     -0.166667
      2 F1          2.9940    0.5210    0.4510 f         1 5QC     -0.166667
      3 F2          1.0350   -0.4070    0.4940 f         1 5QC     -0.166667
      4 O3          5.0400   -4.9000    5.6460 os        1 5QC     -0.079000
      5 O1          3.9360   -4.4420   -4.0210 o         1 5QC     -0.361000
      6 N           4.5590   -3.6990    5.3650 n2        1 5QC     -0.053000
      7 N2          4.2400   -3.3220   -1.0650 na        1 5QC     -0.051000
      8 N3          3.9390   -2.5490   -0.0170 n2        1 5QC      0.035000
      9 N4          2.2600   -2.8170   -4.3360 n4        1 5QC     -0.010000
     10 C           5.7930   -5.4230    4.5290 c2        1 5QC     -0.240000
     11 C1          5.7680   -4.3900    3.4890 c2        1 5QC     -0.366000
     12 C2          4.9430   -3.2980    4.1440 c2        1 5QC      0.070000
     13 C3          6.3590   -6.6320    4.5690 c1        1 5QC      0.252000
     14 C4          4.8130   -5.6780   -1.4960 c2        1 5QC     -0.233000
     15 C5          4.9890   -4.5130   -0.8620 c2        1 5QC     -0.043000
     16 C6          6.3180   -4.3620    2.2840 c1        1 5QC      0.283000
     17 C7          2.8700   -1.7800   -0.2980 c2        1 5QC     -0.253000
     18 C8          2.3250   -2.1060   -1.6230 c2        1 5QC      0.078000
     19 C9          3.2600   -3.1200   -2.1120 c2        1 5QC     -0.337000
     20 C10         2.3710   -0.6910    0.6220 c3        1 5QC      0.516000
     21 C13         3.2730   -3.5800   -3.4230 c2        1 5QC      0.310000
     22 C14         1.9260   -3.5370   -5.5650 c2        1 5QC     -0.190000
     23 C15         1.7350   -4.9040   -5.5870 c2        1 5QC      0.078000
     24 C16         1.4050   -5.5550   -6.8200 c2        1 5QC     -0.183000
     25 C17         1.2980   -4.8580   -7.9830 c2        1 5QC     -0.024000
     26 C18         1.5340   -3.3930   -8.0020 c3        1 5QC     -0.197000
     27 C19         1.8500   -2.7460   -6.7420 c1        1 5QC     -0.104000
     28 C24         0.9520   -5.5510   -9.2690 c3        1 5QC     -0.071000
     29 C25         1.9460   -5.2440  -10.3500 c2        1 5QC     -0.120000
     30 C11         3.3500   -5.7210  -10.0800 c3        1 5QC     -0.029000
     31 N7          3.4490   -7.1680  -10.0350 n3        1 5QC     -0.277000
     32 C20         1.9630   -8.6020  -12.9200 c2        1 5QC     -0.224500
     33 C23         4.6940   -7.6670   -9.6310 c2        1 5QC     -0.102000
     34 C12        -0.4460   -5.1790   -9.6700 c2        1 5QC      0.173000
     35 C21        -1.4030   -6.0620   -9.8570 c1        1 5QC     -0.570000
     36 C22         1.6420   -4.6140  -11.4870 c2        1 5QC     -0.196000
     37 C26        -2.3470   -6.9070  -10.0460 c1        1 5QC      0.235000
     38 C27         5.2690   -8.7860  -10.1310 c2        1 5QC     -0.125000
     39 C28         2.8360   -9.5390  -12.5730 c2        1 5QC     -0.224500
     40 O2          6.4930   -9.1640   -9.6150 oh        1 5QC     -0.264000
     41 C29         1.0020   -2.3910   -3.6320 c3        1 5QC     -0.032000
     42 C31         1.2660   -1.6960   -2.3450 c2        1 5QC     -0.330000
     43 HN11        4.1220   -1.4520    4.0080 hn        1 5QC      0.216000
     44 HN12        4.5890   -2.1190    2.5560 hn        1 5QC      0.216000
     45 H4          5.4980   -6.5130   -1.3020 ha        1 5QC      0.133000
     46 H6          5.7900   -4.3770   -0.1020 h4        1 5QC      0.172000
     47 H15         1.8440   -5.5320   -4.6830 ha        1 5QC      0.172000
     48 H16         1.2550   -6.6480   -6.7900 ha        1 5QC      0.165000
     49 H18         2.3970   -3.1650   -8.7060 hc        1 5QC      0.181500
     50 H19         0.6400   -2.8540   -8.4400 hc        1 5QC      0.181500
     51 H111        3.6760   -5.3180   -9.0760 h1        1 5QC      0.086500
     52 H112        4.0400   -5.2780  -10.8590 h1        1 5QC      0.086500
     53 H201        2.1170   -7.9370  -13.7800 ha        1 5QC      0.113250
     54 H202        1.0220   -8.4380  -12.3770 ha        1 5QC      0.113250
     55 H231        3.0940   -7.6000  -10.8710 hn        1 5QC      0.185000
     56 H232        5.1830   -7.1060   -8.8120 h4        1 5QC      0.157000
     57 H12         0.9890   -6.6730   -9.0970 hc        1 5QC      0.157000
     58 H21        -0.6340   -4.0930   -9.7950 ha        1 5QC      0.125000
     59 H22         0.6380   -4.2330  -11.7190 ha        1 5QC      0.127000
     60 H26         2.3900   -4.4390  -12.2730 ha        1 5QC      0.127000
     61 H27         3.7710   -9.7120  -13.1230 ha        1 5QC      0.113250
     62 H281        4.8610   -9.4080  -10.9410 h4        1 5QC      0.130000
     63 H282        2.6740  -10.2120  -11.7200 ha        1 5QC      0.113250
     64 HO2         6.4630  -10.1270   -9.5190 ho        1 5QC      0.210000
     65 H291        2.7560   -1.9590   -4.6240 hn        1 5QC      0.252000
     66 H292        0.4310   -1.7230   -4.3380 hx        1 5QC      0.113500
     67 H311        0.3970   -3.3250   -3.4450 hx        1 5QC      0.113500
     68 H312        0.5600   -0.9240   -2.0270 ha        1 5QC      0.165000
     69 H3          4.0360   -5.8660   -2.2470 ha        1 5QC      0.133000
     70 N1          4.7590   -2.0640    3.5390 nh        1 5QC     -0.298000
@<TRIPOS>BOND
     1    1   20 1   
     2    2   20 1   
     3    3   20 1   
     4    4    6 1   
     5    4   10 1   
     6    5   21 1   
     7    6   12 1   
     8    7    8 1   
     9    7   15 1   
    10    7   19 1   
    11    8   17 1   
    12    9   21 1   
    13    9   22 1   
    14    9   41 1   
    15    9   65 1   
    16   10   11 1   
    17   10   13 1   
    18   11   12 1   
    19   11   16 1   
    20   12   70 1   
    21   14   15 1   
    22   14   45 1   
    23   14   69 1   
    24   15   46 1   
    25   17   18 1   
    26   17   20 1   
    27   18   19 1   
    28   18   42 1   
    29   19   21 1   
    30   22   23 1   
    31   22   27 1   
    32   23   24 1   
    33   23   47 1   
    34   24   25 1   
    35   24   48 1   
    36   25   26 1   
    37   25   28 1   
    38   26   27 1   
    39   26   49 1   
    40   26   50 1   
    41   28   29 1   
    42   28   34 1   
    43   28   57 1   
    44   29   30 1   
    45   29   36 1   
    46   30   31 1   
    47   30   51 1   
    48   30   52 1   
    49   31   33 1   
    50   31   55 1   
    51   32   39 1   
    52   32   53 1   
    53   32   54 1   
    54   33   38 1   
    55   33   56 1   
    56   34   35 1   
    57   34   58 1   
    58   35   37 1   
    59   36   59 1   
    60   36   60 1   
    61   38   40 1   
    62   38   62 1   
    63   39   61 1   
    64   39   63 1   
    65   40   64 1   
    66   41   42 1   
    67   41   66 1   
    68   41   67 1   
    69   42   68 1   
    70   43   70 1   
    71   44   70 1   
@<TRIPOS>SUBSTRUCTURE
     1 5QC         1 TEMP              0 ****  ****    0 ROOT
