@<TRIPOS>MOLECULE
molecule
   22    22     1     0     0
SMALL
bcc


@<TRIPOS>ATOM
      1 C4           0.0000     0.0000     0.0000 ca         1 5QD       0.046400
      2 C5           1.3840     0.0000     0.0000 ca         1 5QD      -0.124000
      3 C6           2.0750     0.0000     1.1970 ca         1 5QD      -0.105000
      4 C7           1.3850     0.0000     2.3940 ca         1 5QD      -0.124000
      5 C8           0.0020     0.0000     2.3960 ca         1 5QD       0.046400
      6 O           -4.8000    -0.7040     1.2030 o          1 5QD      -0.608100
      7 C1          -4.0120    -1.6260     1.2020 c          1 5QD       0.657100
      8 C           -4.5140    -3.0460     1.2020 c3         1 5QD      -0.170100
      9 N           -2.6860    -1.3800     1.2000 ns         1 5QD      -0.583900
     10 C3          -0.6910     0.0010     1.1980 ca         1 5QD      -0.105300
     11 Cl          -0.8640    -0.0010     3.9000 cl         1 5QD      -0.086400
     12 Cl1         -0.8690     0.0080    -1.5030 cl         1 5QD      -0.086400
     13 H1           1.9260    -0.0000    -0.9380 ha         1 5QD       0.150000
     14 H2           3.1590    -0.0000     1.1960 ha         1 5QD       0.145000
     15 H3           1.9280    -0.0000     3.3320 ha         1 5QD       0.150000
     16 H4          -4.1520    -3.5570     2.0860 hc         1 5QD       0.060700
     17 H5          -4.1540    -3.5570     0.3170 hc         1 5QD       0.060700
     18 H6          -5.5970    -3.0460     1.2040 hc         1 5QD       0.060700
     19 H7          -2.0360    -2.1400     1.1990 hn         1 5QD       0.315500
     20 H8          -2.5580     0.5120     2.0850 h1         1 5QD       0.072700
     21 H9          -2.5600     0.5120     0.3160 h1         1 5QD       0.072700
     22 C2          -2.1980     0.0010     1.2000 c3         1 5QD       0.154300
@<TRIPOS>BOND
     1     6     7 2
     2     7     9 1
     3     7     8 1
     4    22     9 1
     5    22    10 1
     6    12     1 1
     7    10     1 ar
     8    10     5 ar
     9    11     5 1
    10     1     2 ar
    11     5     4 ar
    12     2     3 ar
    13     4     3 ar
    14     2    13 1
    15     3    14 1
    16     4    15 1
    17     8    16 1
    18     8    17 1
    19     8    18 1
    20     9    19 1
    21    22    20 1
    22    22    21 1
@<TRIPOS>SUBSTRUCTURE
     1 5QD         1 TEMP              0 ****  ****    0 ROOT
