@<TRIPOS>MOLECULE
5QD
   22    22     1     0     0
SMALL
bcc


@<TRIPOS>ATOM
      1 C4           0.0000     0.0000     0.0000 ca         1 5QD      -0.018100
      2 C5           1.3840     0.0000     0.0000 ca         1 5QD      -0.099500
      3 C6           2.0750     0.0000     1.1970 ca         1 5QD      -0.073000
      4 C7           1.3850     0.0000     2.3940 ca         1 5QD      -0.099500
      5 C8           0.0020     0.0000     2.3960 ca         1 5QD      -0.018100
      6 O           -4.8000    -0.7040     1.2030 o          1 5QD      -0.645100
      7 C1          -4.0120    -1.6260     1.2020 c          1 5QD       0.570100
      8 C           -4.5140    -3.0460     1.2020 c3         1 5QD      -0.067100
      9 N           -2.6860    -1.3800     1.2000 ns         1 5QD      -0.199900
     10 C3          -0.6910     0.0010     1.1980 ca         1 5QD      -0.116300
     11 Cl          -0.8640    -0.0010     3.9000 cl         1 5QD      -0.003400
     12 Cl1         -0.8690     0.0080    -1.5030 cl         1 5QD      -0.003400
     13 H1           1.9260    -0.0000    -0.9380 ha         1 5QD       0.119000
     14 H2           3.1590    -0.0000     1.1960 ha         1 5QD       0.111000
     15 H3           1.9280    -0.0000     3.3320 ha         1 5QD       0.119000
     16 H4          -4.1520    -3.5570     2.0860 hc         1 5QD       0.022367
     17 H5          -4.1540    -3.5570     0.3170 hc         1 5QD       0.022367
     18 H6          -5.5970    -3.0460     1.2040 hc         1 5QD       0.022367
     19 H7          -2.0360    -2.1400     1.1990 hn         1 5QD       0.176500
     20 H8          -2.5580     0.5120     2.0850 h1         1 5QD       0.042200
     21 H9          -2.5600     0.5120     0.3160 h1         1 5QD       0.042200
     22 C2          -2.1980     0.0010     1.2000 c3         1 5QD       0.095300
@<TRIPOS>BOND
     1     1     2 ar  
     2     1    10 ar  
     3     1    12 1   
     4     2     3 ar  
     5     2    13 1   
     6     3     4 ar  
     7     3    14 1   
     8     4     5 ar  
     9     4    15 1   
    10     5    10 ar  
    11     5    11 1   
    12     6     7 2   
    13     7     8 1   
    14     7     9 1   
    15     8    16 1   
    16     8    17 1   
    17     8    18 1   
    18     9    19 1   
    19     9    22 1   
    20    10    22 1   
    21    20    22 1   
    22    21    22 1   
@<TRIPOS>SUBSTRUCTURE
     1 5QD         1 TEMP              0 ****  ****    0 ROOT
