@<TRIPOS>MOLECULE
5QE
   69    72     1     0     0
SMALL
bcc


@<TRIPOS>ATOM
      1 O30          0.0000     0.0000     0.0000 o          1 5QE      -0.633100
      2 C28          1.2130     0.0000     0.0000 c          1 5QE       0.559100
      3 C20          1.9660     0.0000     1.3050 c3         1 5QE      -0.069100
      4 N27          1.8870    -0.0050    -1.1670 ns         1 5QE      -0.039100
      5 C14          1.1900    -0.1080    -2.3750 ca         1 5QE      -0.090400
      6 C15         -0.0540     0.4920    -2.5160 ca         1 5QE      -0.115000
      7 C16         -0.7390     0.3880    -3.7110 ca         1 5QE      -0.077500
      8 C13          1.7450    -0.8060    -3.4410 ca         1 5QE      -0.115000
      9 C12          1.0560    -0.9050    -4.6340 ca         1 5QE      -0.077500
     10 C11         -0.1850    -0.3110    -4.7680 ca         1 5QE      -0.111300
     11 C10         -0.9340    -0.4220    -6.0710 c3         1 5QE       0.048900
     12 C9          -1.8190    -1.6700    -6.0460 c3         1 5QE       0.089700
     13 S8          -2.7180    -1.8030    -7.6120 ss         1 5QE      -0.401400
     14 C7          -3.6280    -3.2830    -7.3160 ca         1 5QE       0.550600
     15 N6          -3.4980    -3.9180    -6.1620 nb         1 5QE      -0.627000
     16 C5          -4.1660    -5.0300    -5.8990 ca         1 5QE       0.519200
     17 C4          -5.0430    -5.5840    -6.8360 ca         1 5QE      -0.224600
     18 C3          -5.2140    -4.9590    -8.0470 ca         1 5QE       0.003700
     19 C6          -6.1530    -5.5000    -9.0910 c3         1 5QE      -0.007100
     20 C30         -6.4880    -6.9590    -8.7750 c3         1 5QE       0.155800
     21 C26         -7.6450    -7.4240    -9.6620 c3         1 5QE      -0.017600
     22 C25         -5.2600    -7.8360    -9.0310 c3         1 5QE      -0.017600
     23 O8          -6.8650    -7.0510    -7.3970 os         1 5QE      -0.396600
     24 C8          -5.7730    -6.8570    -6.4990 c3         1 5QE       0.273700
     25 C2          -4.4950    -3.7810    -8.3060 ca         1 5QE      -0.068300
     26 C1          -4.6450    -3.0960    -9.5540 cg         1 5QE       0.236800
     27 N1          -4.7830    -2.5480   -10.5390 n1         1 5QE      -0.361800
     28 N17         -3.9930    -5.6570    -4.6750 nh         1 5QE      -0.511300
     29 C18         -4.4840    -4.8070    -3.5780 c3         1 5QE       0.108800
     30 C19         -4.4290    -5.6060    -2.2750 c3         1 5QE       0.198100
     31 C17         -5.5510    -6.6440    -2.2570 c3         1 5QE      -0.039600
     32 O20         -3.1650    -6.2030    -2.0770 os         1 5QE      -0.401600
     33 C21         -2.4340    -6.7660    -3.1450 c3         1 5QE       0.198100
     34 C24         -2.8310    -8.2240    -3.3860 c3         1 5QE      -0.039600
     35 C22         -2.5760    -5.9730    -4.4420 c3         1 5QE       0.108800
     36 H1           2.6060    -0.8730     1.3530 hc         1 5QE       0.024700
     37 H2           2.5720     0.8960     1.3730 hc         1 5QE       0.024700
     38 H3           1.2630    -0.0230     2.1290 hc         1 5QE       0.024700
     39 H4           2.8810     0.1150    -1.1700 hn         1 5QE       0.167500
     40 H5          -0.4880     1.0400    -1.6890 ha         1 5QE       0.126000
     41 H6          -1.7110     0.8540    -3.8200 ha         1 5QE       0.108000
     42 H7           2.7180    -1.2710    -3.3370 ha         1 5QE       0.126000
     43 H8           1.4880    -1.4510    -5.4640 ha         1 5QE       0.108000
     44 H9          -1.5540     0.4570    -6.2070 hc         1 5QE       0.029700
     45 H10         -0.2280    -0.4960    -6.8890 hc         1 5QE       0.029700
     46 H11         -1.2000    -2.5490    -5.9100 h1         1 5QE       0.051200
     47 H12         -2.5260    -1.5960    -5.2290 h1         1 5QE       0.051200
     48 H13         -7.0640    -4.9140    -9.0930 hc         1 5QE       0.045700
     49 H14         -5.6790    -5.4430   -10.0640 hc         1 5QE       0.045700
     50 H15         -7.3740    -7.3020   -10.7030 hc         1 5QE       0.016033
     51 H16         -7.8540    -8.4690    -9.4640 hc         1 5QE       0.016033
     52 H17         -8.5260    -6.8320    -9.4460 hc         1 5QE       0.016033
     53 H18         -5.3850    -8.7880    -8.5300 hc         1 5QE       0.016033
     54 H19         -5.1490    -8.0010   -10.0960 hc         1 5QE       0.016033
     55 H20         -4.3760    -7.3400    -8.6490 hc         1 5QE       0.016033
     56 H21         -5.0860    -7.6890    -6.6040 h1         1 5QE       0.033700
     57 H22         -6.1630    -6.7770    -5.4910 h1         1 5QE       0.033700
     58 H23         -5.5070    -4.5110    -3.7790 h1         1 5QE       0.029200
     59 H24         -3.8560    -3.9290    -3.4910 h1         1 5QE       0.029200
     60 H25         -4.5980    -4.9150    -1.4570 h1         1 5QE       0.031700
     61 H26         -5.6460    -7.0570    -1.2600 hc         1 5QE       0.014200
     62 H27         -6.4840    -6.1730    -2.5430 hc         1 5QE       0.014200
     63 H28         -5.3190    -7.4390    -2.9560 hc         1 5QE       0.014200
     64 H29         -1.3870    -6.7480    -2.8660 h1         1 5QE       0.031700
     65 H30         -2.1060    -8.6930    -4.0410 hc         1 5QE       0.014200
     66 H31         -2.8570    -8.7520    -2.4400 hc         1 5QE       0.014200
     67 H32         -3.8100    -8.2610    -3.8470 hc         1 5QE       0.014200
     68 H33         -2.0100    -5.0530    -4.3650 h1         1 5QE       0.029200
     69 H34         -2.2000    -6.5660    -5.2680 h1         1 5QE       0.029200
@<TRIPOS>BOND
     1     1     2 2   
     2     2     3 1   
     3     2     4 1   
     4     3    36 1   
     5     3    37 1   
     6     3    38 1   
     7     4     5 1   
     8     4    39 1   
     9     5     6 ar  
    10     5     8 ar  
    11     6     7 ar  
    12     6    40 1   
    13     7    10 ar  
    14     7    41 1   
    15     8     9 ar  
    16     8    42 1   
    17     9    10 ar  
    18     9    43 1   
    19    10    11 1   
    20    11    12 1   
    21    11    44 1   
    22    11    45 1   
    23    12    13 1   
    24    12    46 1   
    25    12    47 1   
    26    13    14 1   
    27    14    15 ar  
    28    14    25 ar  
    29    15    16 ar  
    30    16    17 ar  
    31    16    28 1   
    32    17    18 ar  
    33    17    24 1   
    34    18    19 1   
    35    18    25 ar  
    36    19    20 1   
    37    19    48 1   
    38    19    49 1   
    39    20    21 1   
    40    20    22 1   
    41    20    23 1   
    42    21    50 1   
    43    21    51 1   
    44    21    52 1   
    45    22    53 1   
    46    22    54 1   
    47    22    55 1   
    48    23    24 1   
    49    24    56 1   
    50    24    57 1   
    51    25    26 1   
    52    26    27 3   
    53    28    29 1   
    54    28    35 1   
    55    29    30 1   
    56    29    58 1   
    57    29    59 1   
    58    30    31 1   
    59    30    32 1   
    60    30    60 1   
    61    31    61 1   
    62    31    62 1   
    63    31    63 1   
    64    32    33 1   
    65    33    34 1   
    66    33    35 1   
    67    33    64 1   
    68    34    65 1   
    69    34    66 1   
    70    34    67 1   
    71    35    68 1   
    72    35    69 1   
@<TRIPOS>SUBSTRUCTURE
     1 5QE         1 TEMP              0 ****  ****    0 ROOT
