@<TRIPOS>MOLECULE
molecule
   69    72     1     0     0
SMALL
bcc


@<TRIPOS>ATOM
      1 O30          0.0000     0.0000     0.0000 o          1 5QE      -0.593100
      2 C28          1.2130     0.0000     0.0000 c          1 5QE       0.658100
      3 C20          1.9660     0.0000     1.3050 c3         1 5QE      -0.171100
      4 N27          1.8870    -0.0050    -1.1670 ns         1 5QE      -0.482100
      5 C14          1.1900    -0.1080    -2.3750 ca         1 5QE       0.053600
      6 C15         -0.0540     0.4920    -2.5160 ca         1 5QE      -0.141000
      7 C16         -0.7390     0.3880    -3.7110 ca         1 5QE      -0.107500
      8 C13          1.7450    -0.8060    -3.4410 ca         1 5QE      -0.141000
      9 C12          1.0560    -0.9050    -4.6340 ca         1 5QE      -0.107500
     10 C11         -0.1850    -0.3110    -4.7680 ca         1 5QE      -0.102300
     11 C10         -0.9340    -0.4220    -6.0710 c3         1 5QE      -0.024100
     12 C9          -1.8190    -1.6700    -6.0460 c3         1 5QE       0.005700
     13 S8          -2.7180    -1.8030    -7.6120 ss         1 5QE      -0.298400
     14 C7          -3.6280    -3.2830    -7.3160 ca         1 5QE       0.584600
     15 N6          -3.4980    -3.9180    -6.1620 nb         1 5QE      -0.750000
     16 C5          -4.1660    -5.0300    -5.8990 ca         1 5QE       0.635200
     17 C4          -5.0430    -5.5840    -6.8360 ca         1 5QE      -0.229600
     18 C3          -5.2140    -4.9590    -8.0470 ca         1 5QE       0.018700
     19 C6          -6.1530    -5.5000    -9.0910 c3         1 5QE      -0.064100
     20 C30         -6.4880    -6.9590    -8.7750 c3         1 5QE       0.145800
     21 C26         -7.6450    -7.4240    -9.6620 c3         1 5QE      -0.100600
     22 C25         -5.2600    -7.8360    -9.0310 c3         1 5QE      -0.100600
     23 O8          -6.8650    -7.0510    -7.3970 os         1 5QE      -0.412600
     24 C8          -5.7730    -6.8570    -6.4990 c3         1 5QE       0.199700
     25 C2          -4.4950    -3.7810    -8.3060 ca         1 5QE      -0.142300
     26 C1          -4.6450    -3.0960    -9.5540 cg         1 5QE       0.246800
     27 N1          -4.7830    -2.5480   -10.5390 n1         1 5QE      -0.352800
     28 N17         -3.9930    -5.6570    -4.6750 nh         1 5QE      -0.711300
     29 C18         -4.4840    -4.8070    -3.5780 c3         1 5QE       0.127800
     30 C19         -4.4290    -5.6060    -2.2750 c3         1 5QE       0.162100
     31 C17         -5.5510    -6.6440    -2.2570 c3         1 5QE      -0.121100
     32 O20         -3.1650    -6.2030    -2.0770 os         1 5QE      -0.420600
     33 C21         -2.4340    -6.7660    -3.1450 c3         1 5QE       0.162100
     34 C24         -2.8310    -8.2240    -3.3860 c3         1 5QE      -0.121100
     35 C22         -2.5760    -5.9730    -4.4420 c3         1 5QE       0.127800
     36 H1           2.6060    -0.8730     1.3530 hc         1 5QE       0.063700
     37 H2           2.5720     0.8960     1.3730 hc         1 5QE       0.063700
     38 H3           1.2630    -0.0230     2.1290 hc         1 5QE       0.063700
     39 H4           2.8810     0.1150    -1.1700 hn         1 5QE       0.324500
     40 H5          -0.4880     1.0400    -1.6890 ha         1 5QE       0.148500
     41 H6          -1.7110     0.8540    -3.8200 ha         1 5QE       0.134500
     42 H7           2.7180    -1.2710    -3.3370 ha         1 5QE       0.148500
     43 H8           1.4880    -1.4510    -5.4640 ha         1 5QE       0.134500
     44 H9          -1.5540     0.4570    -6.2070 hc         1 5QE       0.058200
     45 H10         -0.2280    -0.4960    -6.8890 hc         1 5QE       0.058200
     46 H11         -1.2000    -2.5490    -5.9100 h1         1 5QE       0.079200
     47 H12         -2.5260    -1.5960    -5.2290 h1         1 5QE       0.079200
     48 H13         -7.0640    -4.9140    -9.0930 hc         1 5QE       0.075200
     49 H14         -5.6790    -5.4430   -10.0640 hc         1 5QE       0.075200
     50 H15         -7.3740    -7.3020   -10.7030 hc         1 5QE       0.047033
     51 H16         -7.8540    -8.4690    -9.4640 hc         1 5QE       0.047033
     52 H17         -8.5260    -6.8320    -9.4460 hc         1 5QE       0.047033
     53 H18         -5.3850    -8.7880    -8.5300 hc         1 5QE       0.047033
     54 H19         -5.1490    -8.0010   -10.0960 hc         1 5QE       0.047033
     55 H20         -4.3760    -7.3400    -8.6490 hc         1 5QE       0.047033
     56 H21         -5.0860    -7.6890    -6.6040 h1         1 5QE       0.071200
     57 H22         -6.1630    -6.7770    -5.4910 h1         1 5QE       0.071200
     58 H23         -5.5070    -4.5110    -3.7790 h1         1 5QE       0.057200
     59 H24         -3.8560    -3.9290    -3.4910 h1         1 5QE       0.057200
     60 H25         -4.5980    -4.9150    -1.4570 h1         1 5QE       0.071700
     61 H26         -5.6460    -7.0570    -1.2600 hc         1 5QE       0.044033
     62 H27         -6.4840    -6.1730    -2.5430 hc         1 5QE       0.044033
     63 H28         -5.3190    -7.4390    -2.9560 hc         1 5QE       0.044033
     64 H29         -1.3870    -6.7480    -2.8660 h1         1 5QE       0.071700
     65 H30         -2.1060    -8.6930    -4.0410 hc         1 5QE       0.044033
     66 H31         -2.8570    -8.7520    -2.4400 hc         1 5QE       0.044033
     67 H32         -3.8100    -8.2610    -3.8470 hc         1 5QE       0.044033
     68 H33         -2.0100    -5.0530    -4.3650 h1         1 5QE       0.057200
     69 H34         -2.2000    -6.5660    -5.2680 h1         1 5QE       0.057200
@<TRIPOS>BOND
     1     3     2 1
     2     1     2 2
     3    31    30 1
     4     2     4 1
     5    32    30 1
     6    32    33 1
     7    34    33 1
     8    30    29 1
     9    33    35 1
    10     4     5 1
    11     8     5 ar
    12     8     9 ar
    13    29    28 1
    14     5     6 ar
    15    35    28 1
    16     9    10 ar
    17    28    16 1
    18     6     7 ar
    19    10     7 ar
    20    10    11 1
    21    24    17 1
    22    24    23 1
    23    16    17 ar
    24    16    15 ar
    25    11    12 1
    26    17    18 ar
    27    15    14 ar
    28    23    20 1
    29    12    13 1
    30    21    20 1
    31    20    22 1
    32    20    19 1
    33    14    25 ar
    34    14    13 1
    35    18    25 ar
    36    18    19 1
    37    25    26 1
    38    26    27 3
    39     3    36 1
    40     3    37 1
    41     3    38 1
    42     4    39 1
    43     6    40 1
    44     7    41 1
    45     8    42 1
    46     9    43 1
    47    11    44 1
    48    11    45 1
    49    12    46 1
    50    12    47 1
    51    19    48 1
    52    19    49 1
    53    21    50 1
    54    21    51 1
    55    21    52 1
    56    22    53 1
    57    22    54 1
    58    22    55 1
    59    24    56 1
    60    24    57 1
    61    29    58 1
    62    29    59 1
    63    30    60 1
    64    31    61 1
    65    31    62 1
    66    31    63 1
    67    33    64 1
    68    34    65 1
    69    34    66 1
    70    34    67 1
    71    35    68 1
    72    35    69 1
@<TRIPOS>SUBSTRUCTURE
     1 5QE         1 TEMP              0 ****  ****    0 ROOT
