@<TRIPOS>MOLECULE
5QF
   75    79     1     0     0
SMALL
bcc


@<TRIPOS>ATOM
      1 C1           0.0000     0.0000     0.0000 c2         1 5QF       0.006000
      2 C2           1.3640     0.0000     0.0000 c2         1 5QF      -0.152000
      3 C3           2.0490     0.0000     1.2190 c2         1 5QF      -0.006000
      4 N4           1.3980     0.0050     2.3710 n2         1 5QF      -0.068000
      5 C5           0.0740     0.0090     2.4200 c2         1 5QF      -0.073000
      6 C6          -0.6770     0.0060     1.2310 c2         1 5QF      -0.015000
      7 C7          -2.1080     0.0050     1.2730 c1         1 5QF      -0.088000
      8 N8          -3.2430    -0.0000     1.3260 n1         1 5QF      -0.045000
      9 S9          -0.7500     0.0190     3.9780 ss         1 5QF       0.163000
     10 C10          0.6810     0.0210     5.0880 c3         1 5QF      -0.503000
     11 C11          0.1980     0.0290     6.5400 DU         1 5QF      -0.157000
     12 C12          1.3890     0.0290     7.4650 ca         1 5QF      -0.080000
     13 C13          1.9370     1.2280     7.8820 ca         1 5QF      -0.051000
     14 C14          3.0290     1.2340     8.7290 ca         1 5QF      -0.200000
     15 C15          3.5760     0.0360     9.1630 ca         1 5QF       0.067000
     16 C16          3.0240    -1.1690     8.7430 ca         1 5QF       0.051000
     17 C17          1.9260    -1.1680     7.8980 ca         1 5QF      -0.192000
     18 O18          3.5580    -2.3470     9.1650 os         1 5QF      -0.206000
     19 O19          4.6510     0.0400     9.9970 os         1 5QF      -0.213000
     20 C20          2.9390    -3.5460     8.6930 c3         1 5QF      -0.020000
     21 C21          5.1650     1.3160    10.3860 c3         1 5QF       0.022000
     22 N22          3.4340    -0.0060     1.2210 nh         1 5QF      -0.029000
     23 C23          3.9540    -1.2140     1.8750 c3         1 5QF      -0.190000
     24 C24          5.4830    -1.2230     1.7860 c3         1 5QF      -0.072000
     25 N25          6.0140    -0.0110     2.4250 n3         1 5QF      -0.040000
     26 C26          5.4940     1.1980     1.7710 c3         1 5QF      -0.072000
     27 C27          3.9660     1.2050     1.8600 c3         1 5QF      -0.190000
     28 C28          5.7150     0.0000     3.8640 c3         1 5QF      -0.106000
     29 C29          6.4790    -1.1340     4.5500 c3         1 5QF       0.023000
     30 O30          7.8830    -0.8900     4.4540 os         1 5QF      -0.268000
     31 C31          8.6910    -1.8970     5.0680 c3         1 5QF       0.022000
     32 C32         -0.7920    -0.0120    -1.2790 c3         1 5QF      -0.098000
     33 C33          0.1060     0.4000    -2.4470 c3         1 5QF       0.150000
     34 O34          1.3160    -0.3620    -2.3780 os         1 5QF      -0.246000
     35 C35          2.1520     0.0060    -1.2830 c3         1 5QF       0.096000
     36 C36          0.4310     1.8910    -2.3450 c3         1 5QF      -0.187000
     37 C37         -0.6110     0.1190    -3.7700 c3         1 5QF      -0.187000
     38 H1           1.4590     0.7670     5.1890 h1         1 5QF       0.130000
     39 H2           0.5620    -0.2640     6.1260 DU         1 5QF       0.230000
     40 H3           0.5270    -0.9220     6.9420 ha         1 5QF       0.127000
     41 H4          -0.8570     0.2130     6.3790 ha         1 5QF       0.127000
     42 H5           1.7150     2.1730     7.4010 ha         1 5QF       0.118000
     43 H6           3.5120     1.9470     9.3870 ha         1 5QF       0.141000
     44 H7           1.5270    -2.1750     7.9020 ha         1 5QF       0.146000
     45 H8           3.9700    -3.8420     8.8470 h1         1 5QF       0.082333
     46 H9           2.1880    -3.8950     9.3920 h1         1 5QF       0.082333
     47 H10          2.9290    -3.1650     7.6790 h1         1 5QF       0.082333
     48 H11          4.2750     1.4670    10.9850 h1         1 5QF       0.064667
     49 H12          5.2950     1.7860     9.4190 h1         1 5QF       0.064667
     50 H13          6.0970     1.0620    10.8760 h1         1 5QF       0.064667
     51 H14          4.1560    -2.0690     1.2400 h1         1 5QF       0.085750
     52 H15          3.3360    -1.2790     2.7620 h1         1 5QF       0.085750
     53 H16          5.7870    -2.2010     2.1360 h1         1 5QF       0.078500
     54 H17          5.7940    -1.3610     0.7570 h1         1 5QF       0.078500
     55 H19          5.6780     2.1950     2.1510 h1         1 5QF       0.078500
     56 H20          5.5490     0.8600     0.7430 h1         1 5QF       0.078500
     57 H21          3.3960     1.4260     2.7550 h1         1 5QF       0.085750
     58 H22          3.6250     1.8240     1.0390 h1         1 5QF       0.085750
     59 H23          4.6640    -0.2590     3.8990 h1         1 5QF       0.065000
     60 H24          5.9350     0.9560     4.3230 h1         1 5QF       0.065000
     61 H25          5.9410    -1.5520     5.3930 h1         1 5QF       0.034000
     62 H26          6.2770    -1.8980     3.8090 h1         1 5QF       0.034000
     63 H27          9.7190    -1.5570     5.0250 h1         1 5QF       0.047000
     64 H28          8.0830    -1.7110     5.9450 h1         1 5QF       0.047000
     65 H29          8.3750    -2.8080     4.5740 h1         1 5QF       0.047000
     66 H30         -1.4380     0.8580    -1.2670 hc         1 5QF       0.085500
     67 H31         -1.4320    -0.8820    -1.1950 hc         1 5QF       0.085500
     68 H32          2.8560    -0.7680    -1.0030 h1         1 5QF       0.073500
     69 H33          2.8270     0.8370    -1.4540 h1         1 5QF       0.073500
     70 H34          1.2070     1.7350    -1.6060 hc         1 5QF       0.063500
     71 H35          1.1190     2.0690    -3.1620 hc         1 5QF       0.063500
     72 H36         -0.2370     2.6860    -2.6530 hc         1 5QF       0.063500
     73 H37          0.0300    -0.6270    -4.2240 hc         1 5QF       0.063500
     74 H38         -0.5050     0.8560    -4.5570 hc         1 5QF       0.063500
     75 H39         -1.5540    -0.3520    -4.0180 hc         1 5QF       0.063500
@<TRIPOS>BOND
     1     1     2 1   
     2     1     6 1   
     3     1    32 1   
     4     2     3 1   
     5     2    35 1   
     6     3     4 1   
     7     3    22 1   
     8     4     5 1   
     9     5     6 1   
    10     5     9 1   
    11     6     7 1   
    12     7     8 1   
    13     9    10 1   
    14    10    11 1   
    15    10    38 1   
    16    10    39 1   
    17    11    12 1   
    18    11    39 1   
    19    11    40 1   
    20    11    41 1   
    21    12    13 1   
    22    12    17 1   
    23    13    14 1   
    24    13    42 1   
    25    14    15 1   
    26    14    43 1   
    27    15    16 1   
    28    15    19 1   
    29    16    17 1   
    30    16    18 1   
    31    17    44 1   
    32    18    20 1   
    33    19    21 1   
    34    20    45 1   
    35    20    46 1   
    36    20    47 1   
    37    21    48 1   
    38    21    49 1   
    39    21    50 1   
    40    22    23 1   
    41    22    27 1   
    42    23    24 1   
    43    23    51 1   
    44    23    52 1   
    45    24    25 1   
    46    24    53 1   
    47    24    54 1   
    48    25    26 1   
    49    25    28 1   
    50    26    27 1   
    51    26    55 1   
    52    26    56 1   
    53    27    57 1   
    54    27    58 1   
    55    28    29 1   
    56    28    59 1   
    57    28    60 1   
    58    29    30 1   
    59    29    61 1   
    60    29    62 1   
    61    30    31 1   
    62    31    63 1   
    63    31    64 1   
    64    31    65 1   
    65    32    33 1   
    66    32    66 1   
    67    32    67 1   
    68    33    34 1   
    69    33    36 1   
    70    33    37 1   
    71    34    35 1   
    72    35    68 1   
    73    35    69 1   
    74    36    70 1   
    75    36    71 1   
    76    36    72 1   
    77    37    73 1   
    78    37    74 1   
    79    37    75 1   
@<TRIPOS>SUBSTRUCTURE
     1 5QF         1 TEMP              0 ****  ****    0 ROOT
