@<TRIPOS>MOLECULE
molecule
   75    78     1     0     0
SMALL
bcc


@<TRIPOS>ATOM
      1 C1           0.0000     0.0000     0.0000 ca         1 5QF       0.015700
      2 C2           1.3640     0.0000     0.0000 ca         1 5QF      -0.231600
      3 C3           2.0490     0.0000     1.2190 ca         1 5QF       0.634200
      4 N4           1.3980     0.0050     2.3710 nb         1 5QF      -0.721000
      5 C5           0.0740     0.0090     2.4200 ca         1 5QF       0.606600
      6 C6          -0.6770     0.0060     1.2310 ca         1 5QF      -0.160300
      7 C7          -2.1080     0.0050     1.2730 cg         1 5QF       0.250800
      8 N8          -3.2430    -0.0000     1.3260 n1         1 5QF      -0.365800
      9 S9          -0.7500     0.0190     3.9780 ss         1 5QF      -0.240400
     10 C10          0.6810     0.0210     5.0880 c3         1 5QF      -0.349300
     11 C11          0.1980     0.0290     6.5400 c3         1 5QF      -0.153100
     12 C12          1.3890     0.0290     7.4650 ca         1 5QF      -0.096300
     13 C13          1.9370     1.2280     7.8820 ca         1 5QF      -0.074000
     14 C14          3.0290     1.2340     8.7290 ca         1 5QF      -0.206000
     15 C15          3.5760     0.0360     9.1630 ca         1 5QF       0.113100
     16 C16          3.0240    -1.1690     8.7430 ca         1 5QF       0.088100
     17 C17          1.9260    -1.1680     7.8980 ca         1 5QF      -0.205000
     18 O18          3.5580    -2.3470     9.1650 os         1 5QF      -0.343900
     19 O19          4.6510     0.0400     9.9970 os         1 5QF      -0.352900
     20 C20          2.9390    -3.5460     8.6930 c3         1 5QF       0.076700
     21 C21          5.1650     1.3160    10.3860 c3         1 5QF       0.111700
     22 N22          3.4340    -0.0060     1.2210 nh         1 5QF      -0.736300
     23 C23          3.9540    -1.2140     1.8750 c3         1 5QF       0.071300
     24 C24          5.4830    -1.2230     1.7860 c3         1 5QF       0.177800
     25 N25          6.0140    -0.0110     2.4250 n3         1 5QF      -0.715600
     26 C26          5.4940     1.1980     1.7710 c3         1 5QF       0.177800
     27 C27          3.9660     1.2050     1.8600 c3         1 5QF       0.071300
     28 C28          5.7150     0.0000     3.8640 c3         1 5QF       0.162800
     29 C29          6.4790    -1.1340     4.5500 c3         1 5QF       0.112400
     30 O30          7.8830    -0.8900     4.4540 os         1 5QF      -0.428600
     31 C31          8.6910    -1.8970     5.0680 c3         1 5QF       0.107700
     32 C32         -0.7920    -0.0120    -1.2790 c3         1 5QF      -0.064100
     33 C33          0.1060     0.4000    -2.4470 c3         1 5QF       0.198800
     34 O34          1.3160    -0.3620    -2.3780 os         1 5QF      -0.403600
     35 C35          2.1520     0.0060    -1.2830 c3         1 5QF       0.174700
     36 C36          0.4310     1.8910    -2.3450 c3         1 5QF      -0.138600
     37 C37         -0.6110     0.1190    -3.7700 c3         1 5QF      -0.138600
     38 H1           1.4590     0.7670     5.1890 h1         1 5QF       0.187200
     39 H2           0.5620    -0.2640     6.1260 h1         1 5QF       0.187200
     40 H3           0.5270    -0.9220     6.9420 hc         1 5QF       0.120200
     41 H4          -0.8570     0.2130     6.3790 hc         1 5QF       0.120200
     42 H5           1.7150     2.1730     7.4010 ha         1 5QF       0.151000
     43 H6           3.5120     1.9470     9.3870 ha         1 5QF       0.154000
     44 H7           1.5270    -2.1750     7.9020 ha         1 5QF       0.158000
     45 H8           3.9700    -3.8420     8.8470 h1         1 5QF       0.084033
     46 H9           2.1880    -3.8950     9.3920 h1         1 5QF       0.084033
     47 H10          2.9290    -3.1650     7.6790 h1         1 5QF       0.084033
     48 H11          4.2750     1.4670    10.9850 h1         1 5QF       0.066367
     49 H12          5.2950     1.7860     9.4190 h1         1 5QF       0.066367
     50 H13          6.0970     1.0620    10.8760 h1         1 5QF       0.066367
     51 H14          4.1560    -2.0690     1.2400 h1         1 5QF       0.067700
     52 H15          3.3360    -1.2790     2.7620 h1         1 5QF       0.067700
     53 H16          5.7870    -2.2010     2.1360 h1         1 5QF       0.071200
     54 H17          5.7940    -1.3610     0.7570 h1         1 5QF       0.071200
     55 H19          5.6780     2.1950     2.1510 h1         1 5QF       0.071200
     56 H20          5.5490     0.8600     0.7430 h1         1 5QF       0.071200
     57 H21          3.3960     1.4260     2.7550 h1         1 5QF       0.067700
     58 H22          3.6250     1.8240     1.0390 h1         1 5QF       0.067700
     59 H23          4.6640    -0.2590     3.8990 h1         1 5QF       0.050200
     60 H24          5.9350     0.9560     4.3230 h1         1 5QF       0.050200
     61 H25          5.9410    -1.5520     5.3930 h1         1 5QF       0.022700
     62 H26          6.2770    -1.8980     3.8090 h1         1 5QF       0.022700
     63 H27          9.7190    -1.5570     5.0250 h1         1 5QF       0.046367
     64 H28          8.0830    -1.7110     5.9450 h1         1 5QF       0.046367
     65 H29          8.3750    -2.8080     4.5740 h1         1 5QF       0.046367
     66 H30         -1.4380     0.8580    -1.2670 hc         1 5QF       0.074200
     67 H31         -1.4320    -0.8820    -1.1950 hc         1 5QF       0.074200
     68 H32          2.8560    -0.7680    -1.0030 h1         1 5QF       0.071200
     69 H33          2.8270     0.8370    -1.4540 h1         1 5QF       0.071200
     70 H34          1.2070     1.7350    -1.6060 hc         1 5QF       0.052367
     71 H35          1.1190     2.0690    -3.1620 hc         1 5QF       0.052367
     72 H36         -0.2370     2.6860    -2.6530 hc         1 5QF       0.052367
     73 H37          0.0300    -0.6270    -4.2240 hc         1 5QF       0.052367
     74 H38         -0.5050     0.8560    -4.5570 hc         1 5QF       0.052367
     75 H39         -1.5540    -0.3520    -4.0180 hc         1 5QF       0.052367
@<TRIPOS>BOND
     1    31    30 1   
     2    30    29 1   
     3    29    28 1   
     4    21    19 1   
     5    20    18 1   
     6    28    25 1   
     7    18    16 1   
     8    19    15 1   
     9    25    26 1   
    10    25    24 1   
    11    16    15 ar  
    12    16    17 ar  
    13    15    14 ar  
    14    26    27 1   
    15    24    23 1   
    16    17    12 ar  
    17    23    22 1   
    18    27    22 1   
    19    14    13 ar  
    20    22     3 1   
    21    12    13 ar  
    22    12    11 1   
    23     3     4 ar  
    24     3     2 ar  
    25    11    10 1   
    26    35     2 1   
    27    35    34 1   
    28     4     5 ar  
    29     2     1 ar  
    30    10     9 1   
    31    34    33 1   
    32     5     9 1   
    33     5     6 ar  
    34     1     6 ar  
    35     1    32 1   
    36    37    33 1   
    37    33    32 1   
    38    33    36 1   
    39     6     7 1   
    40     7     8 3   
    41    10    38 1   
    42    10    39 1   
    43    11    40 1   
    44    11    41 1   
    45    13    42 1   
    46    14    43 1   
    47    17    44 1   
    48    20    45 1   
    49    20    46 1   
    50    20    47 1   
    51    21    48 1   
    52    21    49 1   
    53    21    50 1   
    54    23    51 1   
    55    23    52 1   
    56    24    53 1   
    57    24    54 1   
    58    26    55 1   
    59    26    56 1   
    60    27    57 1   
    61    27    58 1   
    62    28    59 1   
    63    28    60 1   
    64    29    61 1   
    65    29    62 1   
    66    31    63 1   
    67    31    64 1   
    68    31    65 1   
    69    32    66 1   
    70    32    67 1   
    71    35    68 1   
    72    35    69 1   
    73    36    70 1   
    74    36    71 1   
    75    36    72 1   
    76    37    73 1   
    77    37    74 1   
    78    37    75 1   
@<TRIPOS>SUBSTRUCTURE
     1 5QF         1 TEMP              0 ****  ****    0 ROOT
