@<TRIPOS>MOLECULE
5QG
   56    60     1     0     0
SMALL
bcc


@<TRIPOS>ATOM
      1 N1          -1.2870     0.0050    -2.2230 n1         1 5QG      -0.043000
      2 C1          -0.7270     0.0010    -1.2340 c1         1 5QG      -0.088000
      3 C2           0.0000     0.0000     0.0000 c2         1 5QG      -0.153000
      4 C7           1.4060     0.0000     0.0000 c2         1 5QG      -0.038000
      5 N6           2.0710     0.0000     1.1460 n2         1 5QG      -0.161000
      6 C5           1.4430    -0.0030     2.3120 c2         1 5QG       0.055000
      7 N17          2.1830    -0.0020     3.4830 n3         1 5QG       0.012000
      8 C22          3.3910     0.8230     3.3410 c3         1 5QG      -0.158000
      9 C21          4.1470     0.8450     4.6730 c3         1 5QG       0.045000
     10 O20          4.4500    -0.4960     5.0650 os         1 5QG      -0.219000
     11 C19          3.2970    -1.3280     5.2130 c3         1 5QG       0.045000
     12 C18          2.5330    -1.3720     3.8860 c3         1 5QG      -0.158000
     13 C4           0.0470    -0.0070     2.3820 c2         1 5QG      -0.278000
     14 O8          -1.9920     0.3440     3.6120 os         1 5QG      -0.223000
     15 C30         -2.6940    -0.4120     2.6200 c3         1 5QG       0.097000
     16 C6          -2.1850     0.0140     1.2400 c3         1 5QG      -0.191000
     17 C3          -0.6800     0.0030     1.2280 c3         1 5QG       0.219000
     18 S8           2.2860     0.0000    -1.5270 ss         1 5QG       0.144000
     19 C9           3.9870     0.0010    -0.9090 c3         1 5QG      -0.221000
     20 C10          4.9580     0.0010    -2.0910 c3         1 5QG      -0.022000
     21 C11          6.3750     0.0020    -1.5770 ca         1 5QG      -0.084000
     22 C16          7.0250    -1.1950    -1.3410 ca         1 5QG      -0.076000
     23 C15          8.3240    -1.1950    -0.8690 ca         1 5QG      -0.118500
     24 C14          8.9740     0.0030    -0.6330 ca         1 5QG      -0.168000
     25 C13          8.3240     1.2000    -0.8690 ca         1 5QG      -0.118500
     26 C12          7.0260     1.1990    -1.3460 ca         1 5QG      -0.076000
     27 C17         -0.6170    -0.0230     3.7330 c3         1 5QG       0.119000
     28 C20         -4.1940    -0.1340     2.7270 c3         1 5QG      -0.165500
     29 C23         -2.4320    -1.9050     2.8310 c3         1 5QG      -0.165500
     30 H1           3.4400     1.9040     3.2870 h1         1 5QG       0.071500
     31 H2           3.8380     0.2860     2.5130 h1         1 5QG       0.071500
     32 H3           3.6360     1.6730     5.1490 h1         1 5QG       0.061750
     33 H4           5.1910     1.1350     4.6420 h1         1 5QG       0.061750
     34 H5           3.4960    -2.3920     5.2610 h1         1 5QG       0.061750
     35 H6           2.4680    -1.0750     5.8630 h1         1 5QG       0.061750
     36 H7           1.7500    -2.1210     3.8690 h1         1 5QG       0.071500
     37 H8           3.1420    -1.6590     3.0380 h1         1 5QG       0.071500
     38 H9          -2.7410    -0.4580     0.4390 hc         1 5QG       0.129000
     39 H10         -1.2630    -0.5280     1.0650 DU         1 5QG       0.110000
     40 H11          4.1890    -1.0580    -0.8070 h1         1 5QG       0.095000
     41 H12          4.2730     0.2440     0.1070 h1         1 5QG       0.095000
     42 H13          4.7350     0.8560    -2.7190 hc         1 5QG       0.071000
     43 H14          4.9070    -0.9500    -2.6070 hc         1 5QG       0.071000
     44 H15          6.3030    -1.9940    -1.2240 ha         1 5QG       0.112500
     45 H16          9.2210    -1.7530    -0.6280 ha         1 5QG       0.119500
     46 H17          9.8120    -0.3170    -0.0260 ha         1 5QG       0.113000
     47 H18          8.9190     2.0380    -0.5250 ha         1 5QG       0.119500
     48 H19          6.8790     2.2490    -1.5690 ha         1 5QG       0.112500
     49 H20         -0.2160     0.7260     4.4050 h1         1 5QG       0.062000
     50 H21         -0.3110    -0.8940     4.2990 h1         1 5QG       0.062000
     51 H22         -4.0990     0.5400     1.8830 hc         1 5QG       0.064000
     52 H23         -4.8070    -0.9990     2.5060 hc         1 5QG       0.064000
     53 H24         -4.5350     0.5600     3.4860 hc         1 5QG       0.064000
     54 H25         -2.4350    -2.1420     3.8880 hc         1 5QG       0.064000
     55 H26         -1.6630    -2.3180     2.1900 hc         1 5QG       0.064000
     56 H27         -3.2550    -2.5340     2.5140 hc         1 5QG       0.064000
@<TRIPOS>BOND
     1     1     2 1   
     2     2     3 1   
     3     3     4 1   
     4     3    17 1   
     5     4     5 1   
     6     4    18 1   
     7     5     6 1   
     8     6     7 1   
     9     6    13 1   
    10     7     8 1   
    11     7    12 1   
    12     8     9 1   
    13     8    30 1   
    14     8    31 1   
    15     9    10 1   
    16     9    32 1   
    17     9    33 1   
    18    10    11 1   
    19    11    12 1   
    20    11    34 1   
    21    11    35 1   
    22    12    36 1   
    23    12    37 1   
    24    13    17 1   
    25    13    27 1   
    26    14    15 1   
    27    14    27 1   
    28    15    16 1   
    29    15    28 1   
    30    15    29 1   
    31    16    17 1   
    32    16    38 1   
    33    16    39 1   
    34    17    39 1   
    35    18    19 1   
    36    19    20 1   
    37    19    40 1   
    38    19    41 1   
    39    20    21 1   
    40    20    42 1   
    41    20    43 1   
    42    21    22 1   
    43    21    26 1   
    44    22    23 1   
    45    22    44 1   
    46    23    24 1   
    47    23    45 1   
    48    24    25 1   
    49    24    46 1   
    50    25    26 1   
    51    25    47 1   
    52    26    48 1   
    53    27    49 1   
    54    27    50 1   
    55    28    51 1   
    56    28    52 1   
    57    28    53 1   
    58    29    54 1   
    59    29    55 1   
    60    29    56 1   
@<TRIPOS>SUBSTRUCTURE
     1 5QG         1 TEMP              0 ****  ****    0 ROOT
