@<TRIPOS>MOLECULE
molecule
   56    59     1     0     0
SMALL
bcc


@<TRIPOS>ATOM
      1 N1          -1.2870     0.0050    -2.2230 n1         1 5QG      -0.357800
      2 C1          -0.7270     0.0010    -1.2340 cg         1 5QG       0.244800
      3 C2           0.0000     0.0000     0.0000 ca         1 5QG      -0.275300
      4 C7           1.4060     0.0000     0.0000 ca         1 5QG       0.630600
      5 N6           2.0710     0.0000     1.1460 nb         1 5QG      -0.793000
      6 C5           1.4430    -0.0030     2.3120 ca         1 5QG       0.688200
      7 N17          2.1830    -0.0020     3.4830 nh         1 5QG      -0.731300
      8 C22          3.3910     0.8230     3.3410 c3         1 5QG       0.116300
      9 C21          4.1470     0.8450     4.6730 c3         1 5QG       0.119900
     10 O20          4.4500    -0.4960     5.0650 os         1 5QG      -0.375600
     11 C19          3.2970    -1.3280     5.2130 c3         1 5QG       0.119900
     12 C18          2.5330    -1.3720     3.8860 c3         1 5QG       0.116300
     13 C4           0.0470    -0.0070     2.3820 ca         1 5QG      -0.326600
     14 O8          -1.9920     0.3440     3.6120 os         1 5QG      -0.380600
     15 C30         -2.6940    -0.4120     2.6200 c3         1 5QG       0.154800
     16 C6          -2.1850     0.0140     1.2400 c3         1 5QG      -0.168100
     17 C3          -0.6800     0.0030     1.2280 ca         1 5QG       0.152700
     18 S8           2.2860     0.0000    -1.5270 ss         1 5QG      -0.254400
     19 C9           3.9870     0.0010    -0.9090 c3         1 5QG      -0.034300
     20 C10          4.9580     0.0010    -2.0910 c3         1 5QG      -0.012100
     21 C11          6.3750     0.0020    -1.5770 ca         1 5QG      -0.078300
     22 C16          7.0250    -1.1950    -1.3410 ca         1 5QG      -0.107500
     23 C15          8.3240    -1.1950    -0.8690 ca         1 5QG      -0.143000
     24 C14          8.9740     0.0030    -0.6330 ca         1 5QG      -0.180000
     25 C13          8.3240     1.2000    -0.8690 ca         1 5QG      -0.143000
     26 C12          7.0260     1.1990    -1.3460 ca         1 5QG      -0.107500
     27 C17         -0.6170    -0.0230     3.7330 c3         1 5QG       0.190700
     28 C20         -4.1940    -0.1340     2.7270 c3         1 5QG      -0.123600
     29 C23         -2.4320    -1.9050     2.8310 c3         1 5QG      -0.123600
     30 H1           3.4400     1.9040     3.2870 h1         1 5QG       0.058450
     31 H2           3.8380     0.2860     2.5130 h1         1 5QG       0.058450
     32 H3           3.6360     1.6730     5.1490 h1         1 5QG       0.063950
     33 H4           5.1910     1.1350     4.6420 h1         1 5QG       0.063950
     34 H5           3.4960    -2.3920     5.2610 h1         1 5QG       0.063950
     35 H6           2.4680    -1.0750     5.8630 h1         1 5QG       0.063950
     36 H7           1.7500    -2.1210     3.8690 h1         1 5QG       0.058450
     37 H8           3.1420    -1.6590     3.0380 h1         1 5QG       0.058450
     38 H9          -2.7410    -0.4580     0.4390 hc         1 5QG       0.130200
     39 H10         -1.2630    -0.5280     1.0650 hc         1 5QG       0.130200
     40 H11          4.1890    -1.0580    -0.8070 h1         1 5QG       0.079700
     41 H12          4.2730     0.2440     0.1070 h1         1 5QG       0.079700
     42 H13          4.7350     0.8560    -2.7190 hc         1 5QG       0.061200
     43 H14          4.9070    -0.9500    -2.6070 hc         1 5QG       0.061200
     44 H15          6.3030    -1.9940    -1.2240 ha         1 5QG       0.137500
     45 H16          9.2210    -1.7530    -0.6280 ha         1 5QG       0.143000
     46 H17          9.8120    -0.3170    -0.0260 ha         1 5QG       0.133000
     47 H18          8.9190     2.0380    -0.5250 ha         1 5QG       0.143000
     48 H19          6.8790     2.2490    -1.5690 ha         1 5QG       0.137500
     49 H20         -0.2160     0.7260     4.4050 h1         1 5QG       0.063200
     50 H21         -0.3110    -0.8940     4.2990 h1         1 5QG       0.063200
     51 H22         -4.0990     0.5400     1.8830 hc         1 5QG       0.054200
     52 H23         -4.8070    -0.9990     2.5060 hc         1 5QG       0.054200
     53 H24         -4.5350     0.5600     3.4860 hc         1 5QG       0.054200
     54 H25         -2.4350    -2.1420     3.8880 hc         1 5QG       0.054200
     55 H26         -1.6630    -2.3180     2.1900 hc         1 5QG       0.054200
     56 H27         -3.2550    -2.5340     2.5140 hc         1 5QG       0.054200
@<TRIPOS>BOND
     1    10    11 1   
     2    10     9 1   
     3    11    12 1   
     4     9     8 1   
     5    25    24 ar  
     6    25    26 ar  
     7    24    23 ar  
     8    12     7 1   
     9     8     7 1   
    10    26    21 ar  
    11    23    22 ar  
    12     7     6 1   
    13    21    22 ar  
    14    21    20 1   
    15     6     5 ar  
    16     6    13 ar  
    17    27    13 1   
    18    27    14 1   
    19    20    19 1   
    20     5     4 ar  
    21    13    17 ar  
    22    14    15 1   
    23    19    18 1   
    24     4    18 1   
    25     4     3 ar  
    26    17     3 ar  
    27    17    16 1   
    28    15    29 1   
    29    15    28 1   
    30    15    16 1   
    31     3     2 1   
    32     2     1 3   
    33     8    30 1   
    34     8    31 1   
    35     9    32 1   
    36     9    33 1   
    37    11    34 1   
    38    11    35 1   
    39    12    36 1   
    40    12    37 1   
    41    16    38 1   
    42    16    39 1   
    43    19    40 1   
    44    19    41 1   
    45    20    42 1   
    46    20    43 1   
    47    22    44 1   
    48    23    45 1   
    49    24    46 1   
    50    25    47 1   
    51    26    48 1   
    52    27    49 1   
    53    27    50 1   
    54    28    51 1   
    55    28    52 1   
    56    28    53 1   
    57    29    54 1   
    58    29    55 1   
    59    29    56 1   
@<TRIPOS>SUBSTRUCTURE
     1 5QG         1 TEMP              0 ****  ****    0 ROOT
