@<TRIPOS>MOLECULE
molecule
   54    57     1     0     0
SMALL
bcc


@<TRIPOS>ATOM
      1 CAU          0.0000     0.0000     0.0000 c3         1 5QH       0.160800
      2 CAV          1.5300     0.0000     0.0000 c3         1 5QH      -0.032100
      3 CAW          2.0440     0.0000     1.4170 ca         1 5QH      -0.063300
      4 CBC          3.3650    -0.3540     1.6410 ca         1 5QH      -0.128000
      5 CBB          3.8770    -0.3640     2.9220 ca         1 5QH      -0.126000
      6 CBA          3.0690    -0.0190     3.9890 ca         1 5QH      -0.130000
      7 CAZ          1.7520     0.3320     3.7670 ca         1 5QH      -0.127000
      8 CAX          1.2360     0.3410     2.4800 ca         1 5QH      -0.077300
      9 CAY         -0.2080     0.7230     2.2900 c3         1 5QH       0.205100
     10 NAT         -0.4670     1.0750     0.8900 n3         1 5QH      -0.718600
     11 CAS         -1.8920     1.3570     0.6710 c3         1 5QH       0.153800
     12 CAB         -2.2810     2.6320     1.4230 c3         1 5QH       0.130100
     13 OAA         -1.5840     3.7460     0.8620 oh         1 5QH      -0.586800
     14 CAC         -3.7880     2.8570     1.2990 c3         1 5QH       0.101000
     15 NAD         -4.1600     4.0780     2.0190 ns         1 5QH      -0.580900
     16 CAE         -5.4470     4.4780     2.0460 c          1 5QH       0.675700
     17 OAF         -6.2990     3.8270     1.4750 o          1 5QH      -0.603100
     18 CAG         -5.8230     5.7100     2.7720 ca         1 5QH      -0.153600
     19 CAH         -7.1530     6.1230     2.8070 ca         1 5QH      -0.027000
     20 CAL         -4.8450     6.4610     3.4300 ca         1 5QH      -0.098000
     21 CAK         -5.1960     7.6100     4.1090 ca         1 5QH      -0.143000
     22 CAJ         -6.5120     8.0270     4.1410 ca         1 5QH      -0.095000
     23 CAI         -7.4980     7.2840     3.4920 cp         1 5QH      -0.155500
     24 CAM         -8.9120     7.7290     3.5340 cp         1 5QH       0.481800
     25 NAN         -9.8460     7.0140     2.9190 nb         1 5QH      -0.685000
     26 CAO        -11.1130     7.3760     2.9310 ca         1 5QH       0.427200
     27 CAP        -11.5170     8.5220     3.5920 ca         1 5QH      -0.256300
     28 CAQ        -10.5730     9.2980     4.2470 ca         1 5QH      -0.090000
     29 CAR         -9.2510     8.8920     4.2230 ca         1 5QH      -0.244300
     30 H1          -0.3520    -0.9510     0.3810 h1         1 5QH       0.041200
     31 H2          -0.3520     0.1970    -1.0050 h1         1 5QH       0.041200
     32 H3           1.8770    -0.8990    -0.4950 hc         1 5QH       0.061200
     33 H4           1.8770     0.8990    -0.4950 hc         1 5QH       0.061200
     34 H5           3.9990    -0.6240     0.8050 ha         1 5QH       0.130000
     35 H6           4.9110    -0.6400     3.0910 ha         1 5QH       0.129000
     36 H7           3.4670    -0.0260     4.9960 ha         1 5QH       0.129000
     37 H8           1.1190     0.6030     4.6030 ha         1 5QH       0.126000
     38 H9          -0.8380    -0.1130     2.5690 h1         1 5QH       0.040200
     39 H10         -0.4380     1.5750     2.9190 h1         1 5QH       0.040200
     40 H12         -2.0740     1.4930    -0.3880 h1         1 5QH       0.048700
     41 H13         -2.4840     0.5270     1.0360 h1         1 5QH       0.048700
     42 H14         -2.0160     2.5290     2.4690 h1         1 5QH       0.032700
     43 H15         -1.0620     4.1600     1.5290 ho         1 5QH       0.402000
     44 H16         -4.0530     2.9600     0.2530 h1         1 5QH       0.063200
     45 H17         -4.3160     2.0120     1.7240 h1         1 5QH       0.063200
     46 H18         -3.4650     4.5930     2.5210 hn         1 5QH       0.312500
     47 H19         -7.9160     5.5420     2.3020 ha         1 5QH       0.183000
     48 H20         -3.8110     6.1400     3.4090 ha         1 5QH       0.123000
     49 H21         -4.4340     8.1900     4.6160 ha         1 5QH       0.134000
     50 H22         -6.7800     8.9300     4.6750 ha         1 5QH       0.134000
     51 H23        -11.8480     6.7670     2.4180 h4         1 5QH       0.026100
     52 H24        -12.5610     8.8120     3.5940 ha         1 5QH       0.138000
     53 H25        -10.8660    10.1990     4.7730 ha         1 5QH       0.138000
     54 H26         -8.4880     9.4750     4.7240 ha         1 5QH       0.139000
@<TRIPOS>BOND
     1    14    15 1   
     2    14    12 1   
     3    13    12 1   
     4     1     2 1   
     5     1    10 1   
     6    11    12 1   
     7    11    10 1   
     8    15    16 1   
     9     2     3 1   
    10    10     9 1   
    11    26    25 ar  
    12    26    27 ar  
    13    25    24 ar  
    14    16    17 2   
    15    16    18 1   
    16    19    18 ar  
    17    19    23 ar  
    18    18    20 ar  
    19    27    28 ar  
    20     3     4 ar  
    21     3     8 ar  
    22     9     8 1   
    23    24    23 1   
    24    24    29 ar  
    25    23    22 ar  
    26     4     5 ar  
    27     8     7 ar  
    28    20    21 ar  
    29    28    29 ar  
    30    22    21 ar  
    31     5     6 ar  
    32     7     6 ar  
    33     1    30 1   
    34     1    31 1   
    35     2    32 1   
    36     2    33 1   
    37     4    34 1   
    38     5    35 1   
    39     6    36 1   
    40     7    37 1   
    41     9    38 1   
    42     9    39 1   
    43    11    40 1   
    44    11    41 1   
    45    12    42 1   
    46    13    43 1   
    47    14    44 1   
    48    14    45 1   
    49    15    46 1   
    50    19    47 1   
    51    20    48 1   
    52    21    49 1   
    53    22    50 1   
    54    26    51 1   
    55    27    52 1   
    56    28    53 1   
    57    29    54 1   
@<TRIPOS>SUBSTRUCTURE
     1 5QH         1 TEMP              0 ****  ****    0 ROOT
