@<TRIPOS>MOLECULE
5QH
   54    57     1     0     0
SMALL
bcc


@<TRIPOS>ATOM
      1 CAU          0.0000     0.0000     0.0000 c3         1 5QH       0.150800
      2 CAV          1.5300     0.0000     0.0000 c3         1 5QH       0.033900
      3 CAW          2.0440     0.0000     1.4170 ca         1 5QH      -0.069300
      4 CBC          3.3650    -0.3540     1.6410 ca         1 5QH      -0.102000
      5 CBB          3.8770    -0.3640     2.9220 ca         1 5QH      -0.099000
      6 CBA          3.0690    -0.0190     3.9890 ca         1 5QH      -0.104000
      7 CAZ          1.7520     0.3320     3.7670 ca         1 5QH      -0.100000
      8 CAX          1.2360     0.3410     2.4800 ca         1 5QH      -0.084300
      9 CAY         -0.2080     0.7230     2.2900 c3         1 5QH       0.207100
     10 NAT         -0.4670     1.0750     0.8900 n3         1 5QH      -0.531600
     11 CAS         -1.8920     1.3570     0.6710 c3         1 5QH       0.138800
     12 CAB         -2.2810     2.6320     1.4230 c3         1 5QH       0.168100
     13 OAA         -1.5840     3.7460     0.8620 oh         1 5QH      -0.568800
     14 CAC         -3.7880     2.8570     1.2990 c3         1 5QH       0.031000
     15 NAD         -4.1600     4.0780     2.0190 ns         1 5QH      -0.194900
     16 CAE         -5.4470     4.4780     2.0460 c          1 5QH       0.596700
     17 OAF         -6.2990     3.8270     1.4750 o          1 5QH      -0.645100
     18 CAG         -5.8230     5.7100     2.7720 ca         1 5QH      -0.161600
     19 CAH         -7.1530     6.1230     2.8070 ca         1 5QH       0.000000
     20 CAL         -4.8450     6.4610     3.4300 ca         1 5QH      -0.080000
     21 CAK         -5.1960     7.6100     4.1090 ca         1 5QH      -0.114000
     22 CAJ         -6.5120     8.0270     4.1410 ca         1 5QH      -0.075000
     23 CAI         -7.4980     7.2840     3.4920 cp         1 5QH      -0.164500
     24 CAM         -8.9120     7.7290     3.5340 cp         1 5QH       0.438800
     25 NAN         -9.8460     7.0140     2.9190 nb         1 5QH      -0.567000
     26 CAO        -11.1130     7.3760     2.9310 ca         1 5QH       0.409200
     27 CAP        -11.5170     8.5220     3.5920 ca         1 5QH      -0.225300
     28 CAQ        -10.5730     9.2980     4.2470 ca         1 5QH      -0.065000
     29 CAR         -9.2510     8.8920     4.2230 ca         1 5QH      -0.219300
     30 H1          -0.3520    -0.9510     0.3810 h1         1 5QH       0.014700
     31 H2          -0.3520     0.1970    -1.0050 h1         1 5QH       0.014700
     32 H3           1.8770    -0.8990    -0.4950 hc         1 5QH       0.028700
     33 H4           1.8770     0.8990    -0.4950 hc         1 5QH       0.028700
     34 H5           3.9990    -0.6240     0.8050 ha         1 5QH       0.105000
     35 H6           4.9110    -0.6400     3.0910 ha         1 5QH       0.102000
     36 H7           3.4670    -0.0260     4.9960 ha         1 5QH       0.102000
     37 H8           1.1190     0.6030     4.6030 ha         1 5QH       0.101000
     38 H9          -0.8380    -0.1130     2.5690 h1         1 5QH       0.013700
     39 H10         -0.4380     1.5750     2.9190 h1         1 5QH       0.013700
     40 H12         -2.0740     1.4930    -0.3880 h1         1 5QH       0.022700
     41 H13         -2.4840     0.5270     1.0360 h1         1 5QH       0.022700
     42 H14         -2.0160     2.5290     2.4690 h1         1 5QH       0.004700
     43 H15         -1.0620     4.1600     1.5290 ho         1 5QH       0.389000
     44 H16         -4.0530     2.9600     0.2530 h1         1 5QH       0.035700
     45 H17         -4.3160     2.0120     1.7240 h1         1 5QH       0.035700
     46 H18         -3.4650     4.5930     2.5210 hn         1 5QH       0.176500
     47 H19         -7.9160     5.5420     2.3020 ha         1 5QH       0.150000
     48 H20         -3.8110     6.1400     3.4090 ha         1 5QH       0.098000
     49 H21         -4.4340     8.1900     4.6160 ha         1 5QH       0.105000
     50 H22         -6.7800     8.9300     4.6750 ha         1 5QH       0.109000
     51 H23        -11.8480     6.7670     2.4180 h4         1 5QH      -0.018900
     52 H24        -12.5610     8.8120     3.5940 ha         1 5QH       0.113000
     53 H25        -10.8660    10.1990     4.7730 ha         1 5QH       0.107000
     54 H26         -8.4880     9.4750     4.7240 ha         1 5QH       0.120000
@<TRIPOS>BOND
     1     1     2 1   
     2     1    10 1   
     3     1    30 1   
     4     1    31 1   
     5     2     3 1   
     6     2    32 1   
     7     2    33 1   
     8     3     4 ar  
     9     3     8 ar  
    10     4     5 ar  
    11     4    34 1   
    12     5     6 ar  
    13     5    35 1   
    14     6     7 ar  
    15     6    36 1   
    16     7     8 ar  
    17     7    37 1   
    18     8     9 1   
    19     9    10 1   
    20     9    38 1   
    21     9    39 1   
    22    10    11 1   
    23    11    12 1   
    24    11    40 1   
    25    11    41 1   
    26    12    13 1   
    27    12    14 1   
    28    12    42 1   
    29    13    43 1   
    30    14    15 1   
    31    14    44 1   
    32    14    45 1   
    33    15    16 1   
    34    15    46 1   
    35    16    17 2   
    36    16    18 1   
    37    18    19 ar  
    38    18    20 ar  
    39    19    23 ar  
    40    19    47 1   
    41    20    21 ar  
    42    20    48 1   
    43    21    22 ar  
    44    21    49 1   
    45    22    23 ar  
    46    22    50 1   
    47    23    24 1   
    48    24    25 ar  
    49    24    29 ar  
    50    25    26 ar  
    51    26    27 ar  
    52    26    51 1   
    53    27    28 ar  
    54    27    52 1   
    55    28    29 ar  
    56    28    53 1   
    57    29    54 1   
@<TRIPOS>SUBSTRUCTURE
     1 5QH         1 TEMP              0 ****  ****    0 ROOT
