@<TRIPOS>MOLECULE
molecule
   58    62     1     0     0
SMALL
bcc


@<TRIPOS>ATOM
      1 CAV          0.0000     0.0000     0.0000 c3         1 5QJ       0.160800
      2 CAW          1.5290     0.0000     0.0000 c3         1 5QJ      -0.032100
      3 CAX          2.0430     0.0000     1.4170 ca         1 5QJ      -0.063300
      4 CBD          3.3650    -0.3570     1.6410 ca         1 5QJ      -0.128000
      5 CBC          3.8760    -0.3650     2.9230 ca         1 5QJ      -0.125000
      6 CBB          3.0680    -0.0170     3.9890 ca         1 5QJ      -0.130000
      7 CBA          1.7520     0.3350     3.7670 ca         1 5QJ      -0.126000
      8 CAY          1.2350     0.3430     2.4800 ca         1 5QJ      -0.077300
      9 CAZ         -0.2090     0.7250     2.2890 c3         1 5QJ       0.205100
     10 NAU         -0.4660     1.0750     0.8890 n3         1 5QJ      -0.715600
     11 CAT         -1.8920     1.3570     0.6710 c3         1 5QJ       0.155800
     12 CAR         -2.2810     2.6320     1.4200 c3         1 5QJ       0.135100
     13 OAS         -1.5850     3.7470     0.8580 oh         1 5QJ      -0.583800
     14 CAQ         -3.7880     2.8580     1.2970 c3         1 5QJ       0.222800
     15 NAP         -4.1610     4.0800     2.0150 nu         1 5QJ      -0.916900
     16 CAO         -5.4880     4.4920     2.0430 ca         1 5QJ       0.709200
     17 CBE         -6.4570     3.7380     1.3920 ca         1 5QJ      -0.316300
     18 NAN         -5.8170     5.5970     2.6950 nb         1 5QJ      -0.767000
     19 CAM         -7.0630     6.0300     2.7510 ca         1 5QJ       0.471200
     20 CAL         -8.0810     5.3430     2.1280 ca         1 5QJ      -0.313300
     21 CAK         -7.7840     4.1660     1.4300 cp         1 5QJ       0.047000
     22 CAH         -8.8510     3.3930     0.7490 cp         1 5QJ      -0.031000
     23 CAG        -10.1670     3.8420     0.7950 ca         1 5QJ      -0.107000
     24 CAF        -11.1590     3.1150     0.1570 ca         1 5QJ      -0.096200
     25 NAB        -12.5240     3.2750     0.0120 na         1 5QJ      -0.160300
     26 CAA        -13.3330     4.3680     0.5570 c3         1 5QJ       0.039600
     27 CAC        -12.9770     2.2300    -0.7300 cc         1 5QJ       0.432700
     28 NAD        -11.9890     1.4450    -1.0480 nd         1 5QJ      -0.605100
     29 CAE        -10.8320     1.9330    -0.5310 ca         1 5QJ       0.097400
     30 CAJ         -9.5040     1.4980    -0.5680 ca         1 5QJ      -0.071000
     31 CAI         -8.5320     2.2210     0.0590 ca         1 5QJ      -0.131000
     32 H1          -0.3520     0.1960    -1.0050 h1         1 5QJ       0.040200
     33 H2          -0.3520    -0.9500     0.3820 h1         1 5QJ       0.040200
     34 H3           1.8760     0.8990    -0.4950 hc         1 5QJ       0.061200
     35 H4           1.8760    -0.8990    -0.4950 hc         1 5QJ       0.061200
     36 H5           3.9990    -0.6300     0.8060 ha         1 5QJ       0.130000
     37 H6           4.9100    -0.6420     3.0930 ha         1 5QJ       0.129000
     38 H7           3.4650    -0.0220     4.9970 ha         1 5QJ       0.129000
     39 H8           1.1200     0.6080     4.6030 ha         1 5QJ       0.127000
     40 H9          -0.8390    -0.1110     2.5680 h1         1 5QJ       0.040700
     41 H10         -0.4390     1.5780     2.9170 h1         1 5QJ       0.040700
     42 H12         -2.4840     0.5280     1.0380 h1         1 5QJ       0.046200
     43 H13         -2.0750     1.4910    -0.3890 h1         1 5QJ       0.046200
     44 H14         -2.0150     2.5310     2.4660 h1         1 5QJ       0.037700
     45 H15         -1.1390     4.2170     1.5440 ho         1 5QJ       0.405000
     46 H16         -4.3160     2.0140     1.7240 h1         1 5QJ       0.048200
     47 H17         -4.0540     2.9590     0.2510 h1         1 5QJ       0.048200
     48 H18         -3.4640     4.6010     2.5100 hn         1 5QJ       0.447800
     49 H19         -6.1850     2.8330     0.8630 ha         1 5QJ       0.139000
     50 H20         -7.2880     6.9400     3.2940 h4         1 5QJ       0.020100
     51 H21         -9.1000     5.7070     2.1800 ha         1 5QJ       0.134000
     52 H22        -10.3940     4.8140     1.2170 ha         1 5QJ       0.133000
     53 H23        -14.3730     4.2120     0.2960 h1         1 5QJ       0.052367
     54 H24        -13.2320     4.3900     1.6360 h1         1 5QJ       0.052367
     55 H25        -12.9940     5.3100     0.1440 h1         1 5QJ       0.052367
     56 H26        -14.0100     2.0730    -1.0150 h5         1 5QJ       0.072800
     57 H27         -9.2450     0.5900    -1.1000 ha         1 5QJ       0.144000
     58 H28         -7.5030     1.8830     0.0210 ha         1 5QJ       0.136000
@<TRIPOS>BOND
     1    14    15 1
     2    14    12 1
     3    15    16 1
     4     1    10 1
     5     1     2 1
     6    11    12 1
     7    11    10 1
     8    13    12 1
     9    10     9 1
    10     2     3 1
    11    16    18 ar
    12    16    17 ar
    13    26    25 1
    14    18    19 ar
    15    17    21 ar
    16     3     8 ar
    17     3     4 ar
    18     9     8 1
    19    19    20 ar
    20    23    24 ar
    21    23    22 ar
    22    21    20 ar
    23    21    22 1
    24    25    24 1
    25    25    27 1
    26     8     7 ar
    27     4     5 ar
    28    24    29 ar
    29    22    31 ar
    30    27    28 2
    31     7     6 ar
    32     5     6 ar
    33    29    28 1
    34    29    30 ar
    35    31    30 ar
    36     1    32 1
    37     1    33 1
    38     2    34 1
    39     2    35 1
    40     4    36 1
    41     5    37 1
    42     6    38 1
    43     7    39 1
    44     9    40 1
    45     9    41 1
    46    11    42 1
    47    11    43 1
    48    12    44 1
    49    13    45 1
    50    14    46 1
    51    14    47 1
    52    15    48 1
    53    17    49 1
    54    19    50 1
    55    20    51 1
    56    23    52 1
    57    26    53 1
    58    26    54 1
    59    26    55 1
    60    27    56 1
    61    30    57 1
    62    31    58 1
@<TRIPOS>SUBSTRUCTURE
     1 5QJ         1 TEMP              0 ****  ****    0 ROOT
