@<TRIPOS>MOLECULE
5QJ
   58    62     1     0     0
SMALL
bcc


@<TRIPOS>ATOM
      1 CAV          0.0000     0.0000     0.0000 c3         1 5QJ       0.150800
      2 CAW          1.5290     0.0000     0.0000 c3         1 5QJ       0.033900
      3 CAX          2.0430     0.0000     1.4170 ca         1 5QJ      -0.069300
      4 CBD          3.3650    -0.3570     1.6410 ca         1 5QJ      -0.102000
      5 CBC          3.8760    -0.3650     2.9230 ca         1 5QJ      -0.099000
      6 CBB          3.0680    -0.0170     3.9890 ca         1 5QJ      -0.104000
      7 CBA          1.7520     0.3350     3.7670 ca         1 5QJ      -0.100000
      8 CAY          1.2350     0.3430     2.4800 ca         1 5QJ      -0.084300
      9 CAZ         -0.2090     0.7250     2.2890 c3         1 5QJ       0.206100
     10 NAU         -0.4660     1.0750     0.8890 n3         1 5QJ      -0.528600
     11 CAT         -1.8920     1.3570     0.6710 c3         1 5QJ       0.139800
     12 CAR         -2.2810     2.6320     1.4200 c3         1 5QJ       0.174100
     13 OAS         -1.5850     3.7470     0.8580 oh         1 5QJ      -0.565800
     14 CAQ         -3.7880     2.8580     1.2970 c3         1 5QJ       0.138800
     15 NAP         -4.1610     4.0800     2.0150 nu         1 5QJ      -0.509900
     16 CAO         -5.4880     4.4920     2.0430 ca         1 5QJ       0.528200
     17 CBE         -6.4570     3.7380     1.3920 ca         1 5QJ      -0.313300
     18 NAN         -5.8170     5.5970     2.6950 nb         1 5QJ      -0.659000
     19 CAM         -7.0630     6.0300     2.7510 ca         1 5QJ       0.459200
     20 CAL         -8.0810     5.3430     2.1280 ca         1 5QJ      -0.298300
     21 CAK         -7.7840     4.1660     1.4300 cp         1 5QJ       0.059000
     22 CAH         -8.8510     3.3930     0.7490 cp         1 5QJ      -0.030000
     23 CAG        -10.1670     3.8420     0.7950 ca         1 5QJ      -0.076000
     24 CAF        -11.1590     3.1150     0.1570 ca         1 5QJ      -0.259200
     25 NAB        -12.5240     3.2750     0.0120 na         1 5QJ       0.293700
     26 CAA        -13.3330     4.3680     0.5570 c3         1 5QJ       0.004600
     27 CAC        -12.9770     2.2300    -0.7300 cc         1 5QJ       0.261700
     28 NAD        -11.9890     1.4450    -1.0480 nd         1 5QJ      -0.523100
     29 CAE        -10.8320     1.9330    -0.5310 ca         1 5QJ       0.068400
     30 CAJ         -9.5040     1.4980    -0.5680 ca         1 5QJ      -0.038000
     31 CAI         -8.5320     2.2210     0.0590 ca         1 5QJ      -0.113000
     32 H1          -0.3520     0.1960    -1.0050 h1         1 5QJ       0.014200
     33 H2          -0.3520    -0.9500     0.3820 h1         1 5QJ       0.014200
     34 H3           1.8760     0.8990    -0.4950 hc         1 5QJ       0.028700
     35 H4           1.8760    -0.8990    -0.4950 hc         1 5QJ       0.028700
     36 H5           3.9990    -0.6300     0.8060 ha         1 5QJ       0.105000
     37 H6           4.9100    -0.6420     3.0930 ha         1 5QJ       0.102000
     38 H7           3.4650    -0.0220     4.9970 ha         1 5QJ       0.102000
     39 H8           1.1200     0.6080     4.6030 ha         1 5QJ       0.102000
     40 H9          -0.8390    -0.1110     2.5680 h1         1 5QJ       0.014200
     41 H10         -0.4390     1.5780     2.9170 h1         1 5QJ       0.014200
     42 H12         -2.4840     0.5280     1.0380 h1         1 5QJ       0.020200
     43 H13         -2.0750     1.4910    -0.3890 h1         1 5QJ       0.020200
     44 H14         -2.0150     2.5310     2.4660 h1         1 5QJ       0.008700
     45 H15         -1.1390     4.2170     1.5440 ho         1 5QJ       0.391000
     46 H16         -4.3160     2.0140     1.7240 h1         1 5QJ       0.023700
     47 H17         -4.0540     2.9590     0.2510 h1         1 5QJ       0.023700
     48 H18         -3.4640     4.6010     2.5100 hn         1 5QJ       0.296800
     49 H19         -6.1850     2.8330     0.8630 ha         1 5QJ       0.131000
     50 H20         -7.2880     6.9400     3.2940 h4         1 5QJ      -0.026900
     51 H21         -9.1000     5.7070     2.1800 ha         1 5QJ       0.118000
     52 H22        -10.3940     4.8140     1.2170 ha         1 5QJ       0.112000
     53 H23        -14.3730     4.2120     0.2960 h1         1 5QJ       0.020367
     54 H24        -13.2320     4.3900     1.6360 h1         1 5QJ       0.020367
     55 H25        -12.9940     5.3100     0.1440 h1         1 5QJ       0.020367
     56 H26        -14.0100     2.0730    -1.0150 h5         1 5QJ       0.026800
     57 H27         -9.2450     0.5900    -1.1000 ha         1 5QJ       0.110000
     58 H28         -7.5030     1.8830     0.0210 ha         1 5QJ       0.111000
@<TRIPOS>BOND
     1     1     2 1   
     2     1    10 1   
     3     1    32 1   
     4     1    33 1   
     5     2     3 1   
     6     2    34 1   
     7     2    35 1   
     8     3     4 ar  
     9     3     8 ar  
    10     4     5 ar  
    11     4    36 1   
    12     5     6 ar  
    13     5    37 1   
    14     6     7 ar  
    15     6    38 1   
    16     7     8 ar  
    17     7    39 1   
    18     8     9 1   
    19     9    10 1   
    20     9    40 1   
    21     9    41 1   
    22    10    11 1   
    23    11    12 1   
    24    11    42 1   
    25    11    43 1   
    26    12    13 1   
    27    12    14 1   
    28    12    44 1   
    29    13    45 1   
    30    14    15 1   
    31    14    46 1   
    32    14    47 1   
    33    15    16 1   
    34    15    48 1   
    35    16    17 ar  
    36    16    18 ar  
    37    17    21 ar  
    38    17    49 1   
    39    18    19 ar  
    40    19    20 ar  
    41    19    50 1   
    42    20    21 ar  
    43    20    51 1   
    44    21    22 1   
    45    22    23 ar  
    46    22    31 ar  
    47    23    24 ar  
    48    23    52 1   
    49    24    25 1   
    50    24    29 ar  
    51    25    26 1   
    52    25    27 1   
    53    26    53 1   
    54    26    54 1   
    55    26    55 1   
    56    27    28 2   
    57    27    56 1   
    58    28    29 1   
    59    29    30 ar  
    60    30    31 ar  
    61    30    57 1   
    62    31    58 1   
@<TRIPOS>SUBSTRUCTURE
     1 5QJ         1 TEMP              0 ****  ****    0 ROOT
