@<TRIPOS>MOLECULE
5QK
   54    57     1     0     0
SMALL
bcc


@<TRIPOS>ATOM
      1 CAU          0.0000     0.0000     0.0000 c3         1 5QK       0.137800
      2 CAV          1.5290     0.0000     0.0000 c3         1 5QK       0.037900
      3 CAW          2.0440     0.0000     1.4170 ca         1 5QK      -0.073300
      4 CBC          3.3650    -0.3540     1.6410 ca         1 5QK      -0.103000
      5 CBB          3.8770    -0.3650     2.9230 ca         1 5QK      -0.100000
      6 CBA          3.0670    -0.0210     3.9890 ca         1 5QK      -0.103000
      7 CAZ          1.7510     0.3310     3.7670 ca         1 5QK      -0.097000
      8 CAX          1.2350     0.3400     2.4810 ca         1 5QK      -0.081300
      9 CAY         -0.2090     0.7210     2.2900 c3         1 5QK       0.218100
     10 NAT         -0.4670     1.0750     0.8900 n3         1 5QK      -0.528600
     11 CAS         -1.8920     1.3570     0.6720 c3         1 5QK       0.142800
     12 CAB         -2.0620     2.1550    -0.6220 c3         1 5QK       0.172100
     13 OAA         -1.3950     3.4130    -0.4970 oh         1 5QK      -0.565800
     14 CAC         -3.5510     2.3910    -0.8840 c3         1 5QK       0.028000
     15 NAD         -3.7190     3.0500    -2.1820 ns         1 5QK      -0.196900
     16 CAE         -4.9540     3.3580    -2.6260 c          1 5QK       0.559100
     17 OAF         -5.9260     3.0910    -1.9510 o          1 5QK      -0.606100
     18 CAG         -5.1280     4.0370    -3.9610 c3         1 5QK       0.128400
     19 OAH         -6.5180     4.2570    -4.2050 os         1 5QK      -0.236900
     20 CAI         -6.8500     4.8640    -5.3740 ca         1 5QK       0.116800
     21 CAJ         -8.2030     5.1140    -5.6850 ca         1 5QK       0.349600
     22 NAK         -9.1800     4.7640    -4.8430 nb         1 5QK      -0.528000
     23 CAL        -10.4390     4.9940    -5.1270 ca         1 5QK       0.392200
     24 CAM        -10.8210     5.6140    -6.3150 ca         1 5QK      -0.207300
     25 CAN         -9.8720     5.9990    -7.2180 ca         1 5QK      -0.072000
     26 CAO         -8.5210     5.7490    -6.9100 ca         1 5QK      -0.112300
     27 CAP         -7.4910     6.1150    -7.7910 ca         1 5QK      -0.131000
     28 CAQ         -6.1950     5.8590    -7.4590 ca         1 5QK      -0.048000
     29 CAR         -5.8750     5.2400    -6.2540 ca         1 5QK      -0.240000
     30 H1          -0.3520     0.1970    -1.0050 h1         1 5QK       0.012700
     31 H2          -0.3520    -0.9510     0.3810 h1         1 5QK       0.012700
     32 H3           1.8760    -0.8990    -0.4960 hc         1 5QK       0.025700
     33 H4           1.8760     0.8990    -0.4960 hc         1 5QK       0.025700
     34 H5           4.0000    -0.6240     0.8050 ha         1 5QK       0.104000
     35 H6           4.9100    -0.6420     3.0920 ha         1 5QK       0.102000
     36 H7           3.4640    -0.0280     4.9970 ha         1 5QK       0.102000
     37 H8           1.1170     0.6000     4.6030 ha         1 5QK       0.104000
     38 H9          -0.8380    -0.1160     2.5680 h1         1 5QK       0.016700
     39 H10         -0.4390     1.5720     2.9200 h1         1 5QK       0.016700
     40 H12         -2.2780     1.9330     1.5040 h1         1 5QK       0.022200
     41 H13         -2.4380     0.4240     0.5950 h1         1 5QK       0.022200
     42 H14         -1.6340     1.5990    -1.4470 h1         1 5QK       0.002700
     43 H15         -0.8570     3.5600    -1.2570 ho         1 5QK       0.386000
     44 H16         -3.9600     3.0200    -0.1030 h1         1 5QK       0.037200
     45 H17         -4.0710     1.4410    -0.8920 h1         1 5QK       0.037200
     46 H18         -2.9200     3.2400    -2.7540 hn         1 5QK       0.165500
     47 H19         -4.6070     4.9870    -3.9530 h1         1 5QK       0.012700
     48 H20         -4.7190     3.4070    -4.7420 h1         1 5QK       0.012700
     49 H21        -11.2020     4.6940    -4.4190 h4         1 5QK      -0.019900
     50 H22        -11.8690     5.7910    -6.5220 ha         1 5QK       0.110000
     51 H23        -10.1510     6.4820    -8.1470 ha         1 5QK       0.112000
     52 H24         -7.7260     6.5980    -8.7320 ha         1 5QK       0.110000
     53 H25         -5.4030     6.1470    -8.1390 ha         1 5QK       0.099000
     54 H26         -4.8360     5.0470    -6.0130 ha         1 5QK       0.117000
@<TRIPOS>BOND
     1     1     2 1   
     2     1    10 1   
     3     1    30 1   
     4     1    31 1   
     5     2     3 1   
     6     2    32 1   
     7     2    33 1   
     8     3     4 ar  
     9     3     8 ar  
    10     4     5 ar  
    11     4    34 1   
    12     5     6 ar  
    13     5    35 1   
    14     6     7 ar  
    15     6    36 1   
    16     7     8 ar  
    17     7    37 1   
    18     8     9 1   
    19     9    10 1   
    20     9    38 1   
    21     9    39 1   
    22    10    11 1   
    23    11    12 1   
    24    11    40 1   
    25    11    41 1   
    26    12    13 1   
    27    12    14 1   
    28    12    42 1   
    29    13    43 1   
    30    14    15 1   
    31    14    44 1   
    32    14    45 1   
    33    15    16 1   
    34    15    46 1   
    35    16    17 2   
    36    16    18 1   
    37    18    19 1   
    38    18    47 1   
    39    18    48 1   
    40    19    20 1   
    41    20    21 ar  
    42    20    29 ar  
    43    21    22 ar  
    44    21    26 ar  
    45    22    23 ar  
    46    23    24 ar  
    47    23    49 1   
    48    24    25 ar  
    49    24    50 1   
    50    25    26 ar  
    51    25    51 1   
    52    26    27 ar  
    53    27    28 ar  
    54    27    52 1   
    55    28    29 ar  
    56    28    53 1   
    57    29    54 1   
@<TRIPOS>SUBSTRUCTURE
     1 5QK         1 TEMP              0 ****  ****    0 ROOT
