@<TRIPOS>MOLECULE
molecule
   54    57     1     0     0
SMALL
bcc


@<TRIPOS>ATOM
      1 CAU          0.0000     0.0000     0.0000 c3         1 5QK       0.152800
      2 CAV          1.5290     0.0000     0.0000 c3         1 5QK      -0.030100
      3 CAW          2.0440     0.0000     1.4170 ca         1 5QK      -0.066300
      4 CBC          3.3650    -0.3540     1.6410 ca         1 5QK      -0.129000
      5 CBB          3.8770    -0.3650     2.9230 ca         1 5QK      -0.126000
      6 CBA          3.0670    -0.0210     3.9890 ca         1 5QK      -0.128000
      7 CAZ          1.7510     0.3310     3.7670 ca         1 5QK      -0.124000
      8 CAX          1.2350     0.3400     2.4810 ca         1 5QK      -0.074300
      9 CAY         -0.2090     0.7210     2.2900 c3         1 5QK       0.212100
     10 NAT         -0.4670     1.0750     0.8900 n3         1 5QK      -0.716600
     11 CAS         -1.8920     1.3570     0.6720 c3         1 5QK       0.158800
     12 CAB         -2.0620     2.1550    -0.6220 c3         1 5QK       0.133100
     13 OAA         -1.3950     3.4130    -0.4970 oh         1 5QK      -0.582800
     14 CAC         -3.5510     2.3910    -0.8840 c3         1 5QK       0.097000
     15 NAD         -3.7190     3.0500    -2.1820 ns         1 5QK      -0.588900
     16 CAE         -4.9540     3.3580    -2.6260 c          1 5QK       0.655100
     17 OAF         -5.9260     3.0910    -1.9510 o          1 5QK      -0.562100
     18 CAG         -5.1280     4.0370    -3.9610 c3         1 5QK       0.060400
     19 OAH         -6.5180     4.2570    -4.2050 os         1 5QK      -0.263900
     20 CAI         -6.8500     4.8640    -5.3740 ca         1 5QK       0.113800
     21 CAJ         -8.2030     5.1140    -5.6850 ca         1 5QK       0.401600
     22 NAK         -9.1800     4.7640    -4.8430 nb         1 5QK      -0.642000
     23 CAL        -10.4390     4.9940    -5.1270 ca         1 5QK       0.417200
     24 CAM        -10.8210     5.6140    -6.3150 ca         1 5QK      -0.243300
     25 CAN         -9.8720     5.9990    -7.2180 ca         1 5QK      -0.092000
     26 CAO         -8.5210     5.7490    -6.9100 ca         1 5QK      -0.121300
     27 CAP         -7.4910     6.1150    -7.7910 ca         1 5QK      -0.153000
     28 CAQ         -6.1950     5.8590    -7.4590 ca         1 5QK      -0.084000
     29 CAR         -5.8750     5.2400    -6.2540 ca         1 5QK      -0.242000
     30 H1          -0.3520     0.1970    -1.0050 h1         1 5QK       0.036700
     31 H2          -0.3520    -0.9510     0.3810 h1         1 5QK       0.036700
     32 H3           1.8760    -0.8990    -0.4960 hc         1 5QK       0.058200
     33 H4           1.8760     0.8990    -0.4960 hc         1 5QK       0.058200
     34 H5           4.0000    -0.6240     0.8050 ha         1 5QK       0.128000
     35 H6           4.9100    -0.6420     3.0920 ha         1 5QK       0.129000
     36 H7           3.4640    -0.0280     4.9970 ha         1 5QK       0.130000
     37 H8           1.1170     0.6000     4.6030 ha         1 5QK       0.129000
     38 H9          -0.8380    -0.1160     2.5680 h1         1 5QK       0.046200
     39 H10         -0.4390     1.5720     2.9200 h1         1 5QK       0.046200
     40 H12         -2.2780     1.9330     1.5040 h1         1 5QK       0.048200
     41 H13         -2.4380     0.4240     0.5950 h1         1 5QK       0.048200
     42 H14         -1.6340     1.5990    -1.4470 h1         1 5QK       0.032700
     43 H15         -0.8570     3.5600    -1.2570 ho         1 5QK       0.399000
     44 H16         -3.9600     3.0200    -0.1030 h1         1 5QK       0.065200
     45 H17         -4.0710     1.4410    -0.8920 h1         1 5QK       0.065200
     46 H18         -2.9200     3.2400    -2.7540 hn         1 5QK       0.306500
     47 H19         -4.6070     4.9870    -3.9530 h1         1 5QK       0.051700
     48 H20         -4.7190     3.4070    -4.7420 h1         1 5QK       0.051700
     49 H21        -11.2020     4.6940    -4.4190 h4         1 5QK       0.026100
     50 H22        -11.8690     5.7910    -6.5220 ha         1 5QK       0.137000
     51 H23        -10.1510     6.4820    -8.1470 ha         1 5QK       0.141000
     52 H24         -7.7260     6.5980    -8.7320 ha         1 5QK       0.134000
     53 H25         -5.4030     6.1470    -8.1390 ha         1 5QK       0.130000
     54 H26         -4.8360     5.0470    -6.0130 ha         1 5QK       0.132000
@<TRIPOS>BOND
     1    17    16 2
     2    16    18 1
     3    16    15 1
     4    18    19 1
     5    12    14 1
     6    12    11 1
     7    12    13 1
     8    14    15 1
     9     1     2 1
    10     1    10 1
    11    11    10 1
    12     2     3 1
    13    10     9 1
    14    29    28 ar
    15    29    20 ar
    16    19    20 1
    17    28    27 ar
    18    20    21 ar
    19     3     4 ar
    20     3     8 ar
    21     9     8 1
    22     4     5 ar
    23     8     7 ar
    24    27    26 ar
    25    21    26 ar
    26    21    22 ar
    27    26    25 ar
    28    22    23 ar
    29     5     6 ar
    30     7     6 ar
    31    25    24 ar
    32    23    24 ar
    33     1    30 1
    34     1    31 1
    35     2    32 1
    36     2    33 1
    37     4    34 1
    38     5    35 1
    39     6    36 1
    40     7    37 1
    41     9    38 1
    42     9    39 1
    43    11    40 1
    44    11    41 1
    45    12    42 1
    46    13    43 1
    47    14    44 1
    48    14    45 1
    49    15    46 1
    50    18    47 1
    51    18    48 1
    52    23    49 1
    53    24    50 1
    54    25    51 1
    55    27    52 1
    56    28    53 1
    57    29    54 1
@<TRIPOS>SUBSTRUCTURE
     1 5QK         1 TEMP              0 ****  ****    0 ROOT
