@<TRIPOS>MOLECULE
5QL
   61    64     1     0     0
SMALL
bcc


@<TRIPOS>ATOM
      1 CAV          0.0000     0.0000     0.0000 c3         1 5QL       0.150800
      2 CAW          1.5290     0.0000     0.0000 c3         1 5QL       0.033900
      3 CAX          2.0430     0.0000     1.4170 ca         1 5QL      -0.069300
      4 CBD          3.3640    -0.3530     1.6420 ca         1 5QL      -0.102000
      5 CBC          3.8760    -0.3630     2.9250 ca         1 5QL      -0.099000
      6 CBB          3.0660    -0.0170     3.9900 ca         1 5QL      -0.104000
      7 CBA          1.7490     0.3350     3.7680 ca         1 5QL      -0.100000
      8 CAY          1.2340     0.3430     2.4800 ca         1 5QL      -0.084300
      9 CAZ         -0.2110     0.7250     2.2890 c3         1 5QL       0.207100
     10 NAU         -0.4680     1.0760     0.8890 n3         1 5QL      -0.531600
     11 CAT         -1.8930     1.3580     0.6690 c3         1 5QL       0.138800
     12 CAB         -2.2820     2.6330     1.4200 c3         1 5QL       0.168100
     13 OAA         -1.5850     3.7470     0.8590 oh         1 5QL      -0.568800
     14 CAC         -3.7890     2.8590     1.2940 c3         1 5QL       0.031000
     15 NAD         -4.1620     4.0800     2.0130 ns         1 5QL      -0.190900
     16 CAE         -5.4480     4.4800     2.0400 c          1 5QL       0.594700
     17 OAF         -6.3010     3.8280     1.4680 o          1 5QL      -0.654100
     18 CAG         -5.8240     5.7130     2.7650 ca         1 5QL      -0.103600
     19 CAH         -7.1560     6.1260     2.7990 ca         1 5QL      -0.118000
     20 CAS         -4.8490     6.4640     3.4230 ca         1 5QL      -0.152000
     21 CAR         -5.2020     7.6130     4.0990 ca         1 5QL      -0.055000
     22 CAQ         -6.5210     8.0260     4.1290 ca         1 5QL      -0.183000
     23 CAI         -7.5010     7.2830     3.4810 ca         1 5QL       0.058600
     24 NAJ         -8.8330     7.7020     3.5170 nu         1 5QL      -0.420600
     25 CAK         -9.1970     8.9250     4.2390 c3         1 5QL       0.137500
     26 CAL         -9.4230     8.5990     5.7190 c3         1 5QL      -0.084900
     27 CAM         -9.8790     9.8650     6.4480 c3         1 5QL       0.219900
     28 OAN        -11.0680    10.3660     5.8320 os         1 5QL      -0.407600
     29 CAO        -10.9040    10.7320     4.4590 c3         1 5QL       0.219900
     30 CAP        -10.4890     9.5000     3.6510 c3         1 5QL      -0.084900
     31 H1          -0.3520     0.1960    -1.0060 h1         1 5QL       0.014700
     32 H2          -0.3520    -0.9510     0.3820 h1         1 5QL       0.014700
     33 H3           1.8760     0.8990    -0.4950 hc         1 5QL       0.028700
     34 H4           1.8760    -0.8990    -0.4950 hc         1 5QL       0.028700
     35 H5           3.9980    -0.6240     0.8070 ha         1 5QL       0.105000
     36 H6           4.9090    -0.6390     3.0960 ha         1 5QL       0.102000
     37 H7           3.4630    -0.0230     4.9980 ha         1 5QL       0.102000
     38 H8           1.1160     0.6060     4.6030 ha         1 5QL       0.102000
     39 H9          -0.4400     1.5770     2.9170 h1         1 5QL       0.013700
     40 H10         -0.8410    -0.1110     2.5680 h1         1 5QL       0.013700
     41 H12         -2.0740     1.4930    -0.3910 h1         1 5QL       0.022200
     42 H13         -2.4860     0.5280     1.0340 h1         1 5QL       0.022200
     43 H14         -2.0180     2.5310     2.4650 h1         1 5QL       0.004700
     44 H15         -1.0610     4.1590     1.5260 ho         1 5QL       0.389000
     45 H16         -4.0530     2.9610     0.2490 h1         1 5QL       0.034700
     46 H17         -4.3180     2.0140     1.7190 h1         1 5QL       0.034700
     47 H18         -3.4640     4.6090     2.4970 hn         1 5QL       0.178500
     48 H19         -7.9180     5.5460     2.2930 ha         1 5QL       0.133000
     49 H20         -3.8140     6.1440     3.4020 ha         1 5QL       0.100000
     50 H21         -4.4430     8.1950     4.6080 ha         1 5QL       0.099000
     51 H22         -6.7920     8.9290     4.6610 ha         1 5QL       0.117000
     52 H23         -9.5330     7.1840     3.0240 hn         1 5QL       0.297800
     53 H24         -8.4020     9.6550     4.1480 h1         1 5QL       0.040700
     54 H25         -8.4980     8.2440     6.1560 hc         1 5QL       0.030700
     55 H26        -10.1880     7.8360     5.8070 hc         1 5QL       0.030700
     56 H27         -9.0990    10.6150     6.3880 h1         1 5QL       0.008200
     57 H28        -10.0830     9.6300     7.4850 h1         1 5QL       0.008200
     58 H29        -10.1360    11.4910     4.3780 h1         1 5QL       0.008200
     59 H30        -11.8410    11.1160     4.0750 h1         1 5QL       0.008200
     60 H31        -11.2730     8.7540     3.7030 hc         1 5QL       0.030700
     61 H32        -10.3210     9.7850     2.6200 hc         1 5QL       0.030700
@<TRIPOS>BOND
     1     1     2 1   
     2     1    10 1   
     3     1    31 1   
     4     1    32 1   
     5     2     3 1   
     6     2    33 1   
     7     2    34 1   
     8     3     4 ar  
     9     3     8 ar  
    10     4     5 ar  
    11     4    35 1   
    12     5     6 ar  
    13     5    36 1   
    14     6     7 ar  
    15     6    37 1   
    16     7     8 ar  
    17     7    38 1   
    18     8     9 1   
    19     9    10 1   
    20     9    39 1   
    21     9    40 1   
    22    10    11 1   
    23    11    12 1   
    24    11    41 1   
    25    11    42 1   
    26    12    13 1   
    27    12    14 1   
    28    12    43 1   
    29    13    44 1   
    30    14    15 1   
    31    14    45 1   
    32    14    46 1   
    33    15    16 1   
    34    15    47 1   
    35    16    17 2   
    36    16    18 1   
    37    18    19 ar  
    38    18    20 ar  
    39    19    23 ar  
    40    19    48 1   
    41    20    21 ar  
    42    20    49 1   
    43    21    22 ar  
    44    21    50 1   
    45    22    23 ar  
    46    22    51 1   
    47    23    24 1   
    48    24    25 1   
    49    24    52 1   
    50    25    26 1   
    51    25    30 1   
    52    25    53 1   
    53    26    27 1   
    54    26    54 1   
    55    26    55 1   
    56    27    28 1   
    57    27    56 1   
    58    27    57 1   
    59    28    29 1   
    60    29    30 1   
    61    29    58 1   
    62    29    59 1   
    63    30    60 1   
    64    30    61 1   
@<TRIPOS>SUBSTRUCTURE
     1 5QL         1 TEMP              0 ****  ****    0 ROOT
