@<TRIPOS>MOLECULE
molecule
   61    64     1     0     0
SMALL
bcc


@<TRIPOS>ATOM
      1 CAV          0.0000     0.0000     0.0000 c3         1 5QL       0.160800
      2 CAW          1.5290     0.0000     0.0000 c3         1 5QL      -0.032100
      3 CAX          2.0430     0.0000     1.4170 ca         1 5QL      -0.063300
      4 CBD          3.3640    -0.3530     1.6420 ca         1 5QL      -0.128000
      5 CBC          3.8760    -0.3630     2.9250 ca         1 5QL      -0.126000
      6 CBB          3.0660    -0.0170     3.9900 ca         1 5QL      -0.130000
      7 CBA          1.7490     0.3350     3.7680 ca         1 5QL      -0.127000
      8 CAY          1.2340     0.3430     2.4800 ca         1 5QL      -0.077300
      9 CAZ         -0.2110     0.7250     2.2890 c3         1 5QL       0.205100
     10 NAU         -0.4680     1.0760     0.8890 n3         1 5QL      -0.718600
     11 CAT         -1.8930     1.3580     0.6690 c3         1 5QL       0.152800
     12 CAB         -2.2820     2.6330     1.4200 c3         1 5QL       0.131100
     13 OAA         -1.5850     3.7470     0.8590 oh         1 5QL      -0.586800
     14 CAC         -3.7890     2.8590     1.2940 c3         1 5QL       0.101000
     15 NAD         -4.1620     4.0800     2.0130 ns         1 5QL      -0.577900
     16 CAE         -5.4480     4.4800     2.0400 c          1 5QL       0.674700
     17 OAF         -6.3010     3.8280     1.4680 o          1 5QL      -0.612100
     18 CAG         -5.8240     5.7130     2.7650 ca         1 5QL      -0.098600
     19 CAH         -7.1560     6.1260     2.7990 ca         1 5QL      -0.147000
     20 CAS         -4.8490     6.4640     3.4230 ca         1 5QL      -0.166000
     21 CAR         -5.2020     7.6130     4.0990 ca         1 5QL      -0.091000
     22 CAQ         -6.5210     8.0260     4.1290 ca         1 5QL      -0.194000
     23 CAI         -7.5010     7.2830     3.4810 ca         1 5QL       0.195600
     24 NAJ         -8.8330     7.7020     3.5170 nu         1 5QL      -0.821600
     25 CAK         -9.1970     8.9250     4.2390 c3         1 5QL       0.242500
     26 CAL         -9.4230     8.5990     5.7190 c3         1 5QL      -0.134900
     27 CAM         -9.8790     9.8650     6.4480 c3         1 5QL       0.139400
     28 OAN        -11.0680    10.3660     5.8320 os         1 5QL      -0.420600
     29 CAO        -10.9040    10.7320     4.4590 c3         1 5QL       0.139400
     30 CAP        -10.4890     9.5000     3.6510 c3         1 5QL      -0.134900
     31 H1          -0.3520     0.1960    -1.0060 h1         1 5QL       0.041200
     32 H2          -0.3520    -0.9510     0.3820 h1         1 5QL       0.041200
     33 H3           1.8760     0.8990    -0.4950 hc         1 5QL       0.061200
     34 H4           1.8760    -0.8990    -0.4950 hc         1 5QL       0.061200
     35 H5           3.9980    -0.6240     0.8070 ha         1 5QL       0.130000
     36 H6           4.9090    -0.6390     3.0960 ha         1 5QL       0.129000
     37 H7           3.4630    -0.0230     4.9980 ha         1 5QL       0.129000
     38 H8           1.1160     0.6060     4.6030 ha         1 5QL       0.126000
     39 H9          -0.4400     1.5770     2.9170 h1         1 5QL       0.040200
     40 H10         -0.8410    -0.1110     2.5680 h1         1 5QL       0.040200
     41 H12         -2.0740     1.4930    -0.3910 h1         1 5QL       0.048200
     42 H13         -2.4860     0.5280     1.0340 h1         1 5QL       0.048200
     43 H14         -2.0180     2.5310     2.4650 h1         1 5QL       0.033700
     44 H15         -1.0610     4.1590     1.5260 ho         1 5QL       0.402000
     45 H16         -4.0530     2.9610     0.2490 h1         1 5QL       0.062200
     46 H17         -4.3180     2.0140     1.7190 h1         1 5QL       0.062200
     47 H18         -3.4640     4.6090     2.4970 hn         1 5QL       0.315500
     48 H19         -7.9180     5.5460     2.2930 ha         1 5QL       0.156000
     49 H20         -3.8140     6.1440     3.4020 ha         1 5QL       0.120000
     50 H21         -4.4430     8.1950     4.6080 ha         1 5QL       0.130000
     51 H22         -6.7920     8.9290     4.6610 ha         1 5QL       0.133000
     52 H23         -9.5330     7.1840     3.0240 hn         1 5QL       0.443800
     53 H24         -8.4020     9.6550     4.1480 h1         1 5QL       0.058700
     54 H25         -8.4980     8.2440     6.1560 hc         1 5QL       0.059200
     55 H26        -10.1880     7.8360     5.8070 hc         1 5QL       0.059200
     56 H27         -9.0990    10.6150     6.3880 h1         1 5QL       0.048700
     57 H28        -10.0830     9.6300     7.4850 h1         1 5QL       0.048700
     58 H29        -10.1360    11.4910     4.3780 h1         1 5QL       0.048700
     59 H30        -11.8410    11.1160     4.0750 h1         1 5QL       0.048700
     60 H31        -11.2730     8.7540     3.7030 hc         1 5QL       0.059200
     61 H32        -10.3210     9.7850     2.6200 hc         1 5QL       0.059200
@<TRIPOS>BOND
     1    17    16 2   
     2    26    27 1   
     3    26    25 1   
     4    27    28 1   
     5    24    25 1   
     6    24    23 1   
     7    19    23 ar  
     8    19    18 ar  
     9    25    30 1   
    10    16    18 1   
    11    16    15 1   
    12    23    22 ar  
    13    18    20 ar  
    14    14    15 1   
    15    14    12 1   
    16    28    29 1   
    17    11    12 1   
    18    11    10 1   
    19     1     2 1   
    20     1    10 1   
    21    13    12 1   
    22     2     3 1   
    23    10     9 1   
    24    30    29 1   
    25    22    21 ar  
    26    20    21 ar  
    27     3     4 ar  
    28     3     8 ar  
    29     9     8 1   
    30     4     5 ar  
    31     8     7 ar  
    32     5     6 ar  
    33     7     6 ar  
    34     1    31 1   
    35     1    32 1   
    36     2    33 1   
    37     2    34 1   
    38     4    35 1   
    39     5    36 1   
    40     6    37 1   
    41     7    38 1   
    42     9    39 1   
    43     9    40 1   
    44    11    41 1   
    45    11    42 1   
    46    12    43 1   
    47    13    44 1   
    48    14    45 1   
    49    14    46 1   
    50    15    47 1   
    51    19    48 1   
    52    20    49 1   
    53    21    50 1   
    54    22    51 1   
    55    24    52 1   
    56    25    53 1   
    57    26    54 1   
    58    26    55 1   
    59    27    56 1   
    60    27    57 1   
    61    29    58 1   
    62    29    59 1   
    63    30    60 1   
    64    30    61 1   
@<TRIPOS>SUBSTRUCTURE
     1 5QL         1 TEMP              0 ****  ****    0 ROOT
