@<TRIPOS>MOLECULE
5QM
   23    24     1     0     0
SMALL
bcc


@<TRIPOS>ATOM
      1 O1          0.1280    0.5260   -0.2300 oh        1 5QM     -0.587800
      2 C2          1.1930   -0.3740    0.0140 c3        1 5QM      0.210500
      3 C3          1.7880   -0.2160    1.3160 c1        1 5QM     -0.161100
      4 C4          2.2930   -0.1040    2.3970 cg        1 5QM     -0.096000
      5 C5          2.8870    0.0290    3.6660 ca        1 5QM      0.017000
      6 C6          4.2820   -0.2280    3.8140 ca        1 5QM     -0.092000
      7 C7          4.8890   -0.1060    5.0390 ca        1 5QM     -0.127000
      8 C8          4.1360    0.2790    6.1800 ca        1 5QM     -0.006000
      9 C9          4.7120    0.4220    7.4730 ca        1 5QM     -0.231300
     10 C10         3.9020    0.8010    8.5280 ca        1 5QM      0.388200
     11 N11         2.5590    1.0520    8.4070 nb        1 5QM     -0.663000
     12 C12         2.0150    0.9220    7.2080 ca        1 5QM      0.427200
     13 C13         2.7480    0.5350    6.0350 ca        1 5QM     -0.166300
     14 C14         2.1350    0.4040    4.7660 ca        1 5QM     -0.072000
     15 HO1         0.4600    1.4210   -0.0900 ho        1 5QM      0.405000
     16 H2          0.7230   -1.3950   -0.0840 h1        1 5QM      0.065700
     17 H2A         1.9860   -0.2510   -0.7790 h1        1 5QM      0.065700
     18 H6          4.8620   -0.5260    2.9270 ha        1 5QM      0.143000
     19 H7          5.9650   -0.3040    5.1560 ha        1 5QM      0.141000
     20 H9          5.7840    0.2310    7.6160 ha        1 5QM      0.145000
     21 H10         4.3020    0.9250    9.5500 h4        1 5QM      0.024100
     22 H12         0.9320    1.1270    7.1260 h4        1 5QM      0.024100
     23 H14         1.0570    0.6040    4.6690 ha        1 5QM      0.146000
@<TRIPOS>BOND
     1    1    2 1   
     2    1   15 1   
     3    2    3 1   
     4    2   16 1   
     5    2   17 1   
     6    3    4 3   
     7    4    5 1   
     8    5    6 ar  
     9    5   14 ar  
    10    6    7 ar  
    11    6   18 1   
    12    7    8 ar  
    13    7   19 1   
    14    8    9 ar  
    15    8   13 ar  
    16    9   10 ar  
    17    9   20 1   
    18   10   11 ar  
    19   10   21 1   
    20   11   12 ar  
    21   12   13 ar  
    22   12   22 1   
    23   13   14 ar  
    24   14   23 1   
@<TRIPOS>SUBSTRUCTURE
     1 5QM         1 TEMP              0 ****  ****    0 ROOT
