@<TRIPOS>MOLECULE
molecule
   23    24     1     0     0
SMALL
bcc


@<TRIPOS>ATOM
      1 O1           0.0000     0.0000     0.0000 oh         1 5QM      -0.799800
      2 C2           1.4290     0.0000     0.0000 c3         1 5QM       0.293500
      3 C3           1.9200     0.0000     1.3880 c1         1 5QM      -0.097100
      4 C4           2.3290     0.0090     2.4880 cg         1 5QM      -0.128000
      5 C5           2.6220    -0.1070     3.9900 ca         1 5QM       0.088000
      6 C6           4.1370     0.6110     4.1030 ca         1 5QM      -0.087000
      7 C7           4.4970     0.5660     5.3810 ca         1 5QM      -0.140000
      8 C8           3.5410     0.7120     6.6760 ca         1 5QM      -0.047000
      9 C9           3.9250     0.6640     7.9250 ca         1 5QM      -0.188300
     10 C10          2.8660     0.8230     8.8800 ca         1 5QM       0.382200
     11 N11          1.5040     0.2000     8.5010 nb         1 5QM      -0.652000
     12 C12          1.4330    -0.4230     7.3340 ca         1 5QM       0.393200
     13 C13          2.3240    -0.0810     6.1750 ca         1 5QM      -0.167300
     14 C14          1.8010    -0.0650     4.7940 ca         1 5QM      -0.059000
     15 HO1         -0.7230    -0.0850    -0.6000 ho         1 5QM       0.476000
     16 H2           1.7890    -0.5160    -0.8820 h1         1 5QM       0.056700
     17 H2A          1.2330     1.0200    -0.3090 h1         1 5QM       0.056700
     18 H6           4.9590     0.6370     3.3980 ha         1 5QM       0.163000
     19 H7           5.3290     1.0450     5.8840 ha         1 5QM       0.116000
     20 H9           4.8080     1.2410     8.1730 ha         1 5QM       0.135000
     21 H10          3.0030     0.8460     9.9550 h4         1 5QM       0.033100
     22 H12          0.4320    -0.7050     7.0320 h4         1 5QM       0.016100
     23 H14          0.7900    -0.4360     4.6720 ha         1 5QM       0.154000
@<TRIPOS>BOND
     1     1     2 1   
     2     1    15 1   
     3     2     3 1   
     4     2    16 1   
     5     2    17 1   
     6     3     4 3   
     7     4     5 1   
     8     5     6 ar  
     9     5    14 ar  
    10     6     7 ar  
    11     6    18 1   
    12     7     8 ar  
    13     7    19 1   
    14     8     9 ar  
    15     8    13 ar  
    16     9    10 ar  
    17     9    20 1   
    18    10    11 ar  
    19    10    21 1   
    20    11    12 ar  
    21    12    13 ar  
    22    12    22 1   
    23    13    14 ar  
    24    14    23 1   
@<TRIPOS>SUBSTRUCTURE
     1 5QM         1 TEMP              0 ****  ****    0 ROOT
