@<TRIPOS>MOLECULE
5QN
   63    65     1     0     0
SMALL
bcc


@<TRIPOS>ATOM
      1 C17          0.0000     0.0000     0.0000 ca         1 5QN      -0.006000
      2 C21         -2.1240     0.0030     3.4790 c3         1 5QN       0.185400
      3 C22         -2.7200     0.0030     4.8880 c3         1 5QN       0.153800
      4 C24         -3.0080     2.4080     4.9180 c3         1 5QN       0.061500
      5 C28         -2.7490     1.2090     6.9910 c3         1 5QN       0.117800
      6 C01         -1.5130     2.0850    -5.8180 c3         1 5QN       0.000900
      7 C02         -0.1380     1.4520    -6.0480 c3         1 5QN       0.207400
      8 C04          1.5970     0.3740    -4.8350 ca         1 5QN       0.144100
      9 C05          2.2860     0.2650    -6.0360 ca         1 5QN      -0.209000
     10 C06          3.5230    -0.3370    -6.0720 ca         1 5QN      -0.039000
     11 C07          4.0920    -0.8410    -4.8950 ca         1 5QN      -0.208600
     12 C08          5.4120    -1.4830    -4.9310 c          1 5QN       0.625700
     13 C09          6.1570    -1.6010    -6.2360 c3         1 5QN      -0.092100
     14 O10          5.9020    -1.9190    -3.9110 o          1 5QN      -0.554100
     15 C11          3.3980    -0.7310    -3.6840 ca         1 5QN      -0.021000
     16 C12          2.1580    -0.1200    -3.6560 ca         1 5QN      -0.135400
     17 N13          1.4630    -0.0020    -2.4460 ns         1 5QN      -0.020100
     18 C14          2.1370    -0.0010    -1.2780 c          1 5QN       0.589700
     19 O15          3.3530    -0.0010    -1.2780 o          1 5QN      -0.633100
     20 C16          1.3990     0.0000     0.0000 ca         1 5QN      -0.229600
     21 C18         -0.6940     0.0010     1.1890 ca         1 5QN      -0.247000
     22 C19         -0.0100    -0.0030     2.3980 ca         1 5QN       0.236100
     23 O20         -0.6970    -0.0020     3.5660 os         1 5QN      -0.239900
     24 N23         -2.3680     1.2560     5.5690 n3         1 5QN      -0.519600
     25 C25         -2.7900     3.6480     5.7350 c2         1 5QN       0.407200
     26 N26         -2.4150     3.6360     6.9440 n2         1 5QN      -0.517900
     27 C27         -2.1330     2.4190     7.6970 c3         1 5QN       0.154800
     28 C29          1.3950    -0.0090     2.4110 ca         1 5QN      -0.203600
     29 C30          2.1230    -0.0150     3.6920 c          1 5QN       0.717700
     30 O31          1.5090    -0.0140     4.7400 o          1 5QN      -0.568000
     31 O32          3.4710    -0.0210     3.7000 os         1 5QN      -0.415900
     32 C33          4.1220    -0.0250     4.9980 c3         1 5QN       0.272700
     33 C34          2.0960     0.0000     1.2070 ca         1 5QN       0.059000
     34 H1          -0.5390     0.0030    -0.9390 ha         1 5QN       0.100000
     35 H2          -2.4570    -0.8800     2.9460 h1         1 5QN       0.004700
     36 H3          -2.4500     0.8890     2.9490 h1         1 5QN       0.004700
     37 H4          -2.3240    -0.8350     5.4470 h1         1 5QN       0.021200
     38 H5          -3.7980    -0.0820     4.8230 h1         1 5QN       0.021200
     39 H6          -4.0710     2.2220     4.8260 h1         1 5QN       0.022200
     40 H7          -2.5760     2.5480     3.9340 h1         1 5QN       0.022200
     41 H8          -2.3720     0.2970     7.4380 h1         1 5QN       0.016200
     42 H9          -3.8280     1.2470     7.0800 h1         1 5QN       0.016200
     43 H10         -1.4190     2.9070    -5.1190 hc         1 5QN       0.011367
     44 H11         -2.1890     1.3420    -5.4140 hc         1 5QN       0.011367
     45 H12         -1.9020     2.4550    -6.7590 hc         1 5QN       0.011367
     46 H13         -0.2320     0.6290    -6.7460 h1         1 5QN       0.002700
     47 H14          0.5380     2.1950    -6.4550 h1         1 5QN       0.002700
     48 H15          1.8480     0.6540    -6.9470 ha         1 5QN       0.122000
     49 H16          4.0580    -0.4210    -7.0100 ha         1 5QN       0.107000
     50 H17          5.5670    -2.1760    -6.9390 hc         1 5QN       0.024367
     51 H18          6.3360    -0.6110    -6.6400 hc         1 5QN       0.024367
     52 H19          7.1040    -2.0990    -6.0670 hc         1 5QN       0.024367
     53 H20          3.8340    -1.1170    -2.7710 ha         1 5QN       0.176000
     54 H21          0.4640     0.0590    -2.4460 hn         1 5QN       0.177500
     55 H22         -1.7770     0.0010     1.1810 ha         1 5QN       0.126000
     56 H24         -3.0930     4.6010     5.3190 h4         1 5QN      -0.021200
     57 H25         -1.0610     2.2840     7.7690 h1         1 5QN       0.034700
     58 H26         -2.5570     2.5080     8.6900 h1         1 5QN       0.034700
     59 H27          3.8240    -0.9090     5.5480 h1         1 5QN       0.000367
     60 H28          5.1970    -0.0290     4.8620 h1         1 5QN       0.000367
     61 H29          3.8310     0.8600     5.5500 h1         1 5QN       0.000367
     62 H30          3.1790    -0.0020     1.2080 ha         1 5QN       0.143000
     63 O03          0.3760     0.9690    -4.8060 os         1 5QN      -0.318900
@<TRIPOS>BOND
     1     1    20 ar  
     2     1    21 ar  
     3     1    34 1   
     4     2     3 1   
     5     2    23 1   
     6     2    35 1   
     7     2    36 1   
     8     3    24 1   
     9     3    37 1   
    10     3    38 1   
    11     4    24 1   
    12     4    25 1   
    13     4    39 1   
    14     4    40 1   
    15     5    24 1   
    16     5    27 1   
    17     5    41 1   
    18     5    42 1   
    19     6     7 1   
    20     6    43 1   
    21     6    44 1   
    22     6    45 1   
    23     7    46 1   
    24     7    47 1   
    25     7    63 1   
    26     8     9 ar  
    27     8    16 ar  
    28     8    63 1   
    29     9    10 ar  
    30     9    48 1   
    31    10    11 ar  
    32    10    49 1   
    33    11    12 1   
    34    11    15 ar  
    35    12    13 1   
    36    12    14 2   
    37    13    50 1   
    38    13    51 1   
    39    13    52 1   
    40    15    16 ar  
    41    15    53 1   
    42    16    17 1   
    43    17    18 1   
    44    17    54 1   
    45    18    19 2   
    46    18    20 1   
    47    20    33 ar  
    48    21    22 ar  
    49    21    55 1   
    50    22    23 1   
    51    22    28 ar  
    52    25    26 2   
    53    25    56 1   
    54    26    27 1   
    55    27    57 1   
    56    27    58 1   
    57    28    29 1   
    58    28    33 ar  
    59    29    30 2   
    60    29    31 1   
    61    31    32 1   
    62    32    59 1   
    63    32    60 1   
    64    32    61 1   
    65    33    62 1   
@<TRIPOS>SUBSTRUCTURE
     1 5QN         1 TEMP              0 ****  ****    0 ROOT
