@<TRIPOS>MOLECULE
molecule
   63    65     1     0     0
SMALL
bcc


@<TRIPOS>ATOM
      1 C17          0.0000     0.0000     0.0000 ca         1 5QN      -0.035000
      2 C21         -2.1240     0.0030     3.4790 c3         1 5QN       0.131400
      3 C22         -2.7200     0.0030     4.8880 c3         1 5QN       0.166800
      4 C24         -3.0080     2.4080     4.9180 c3         1 5QN       0.052500
      5 C28         -2.7490     1.2090     6.9910 c3         1 5QN       0.121800
      6 C01         -1.5130     2.0850    -5.8180 c3         1 5QN      -0.093100
      7 C02         -0.1380     1.4520    -6.0480 c3         1 5QN       0.137400
      8 C04          1.5970     0.3740    -4.8350 ca         1 5QN       0.131100
      9 C05          2.2860     0.2650    -6.0360 ca         1 5QN      -0.218000
     10 C06          3.5230    -0.3370    -6.0720 ca         1 5QN      -0.074000
     11 C07          4.0920    -0.8410    -4.8950 ca         1 5QN      -0.199600
     12 C08          5.4120    -1.4830    -4.9310 c          1 5QN       0.578700
     13 C09          6.1570    -1.6010    -6.2360 c3         1 5QN      -0.191100
     14 O10          5.9020    -1.9190    -3.9110 o          1 5QN      -0.522100
     15 C11          3.3980    -0.7310    -3.6840 ca         1 5QN      -0.047000
     16 C12          2.1580    -0.1200    -3.6560 ca         1 5QN       0.020600
     17 N13          1.4630    -0.0020    -2.4460 ns         1 5QN      -0.464100
     18 C14          2.1370    -0.0010    -1.2780 c          1 5QN       0.679700
     19 O15          3.3530    -0.0010    -1.2780 o          1 5QN      -0.593100
     20 C16          1.3990     0.0000     0.0000 ca         1 5QN      -0.211600
     21 C18         -0.6940     0.0010     1.1890 ca         1 5QN      -0.255000
     22 C19         -0.0100    -0.0030     2.3980 ca         1 5QN       0.223100
     23 O20         -0.6970    -0.0020     3.5660 os         1 5QN      -0.262900
     24 N23         -2.3680     1.2560     5.5690 n3         1 5QN      -0.703600
     25 C25         -2.7900     3.6480     5.7350 c2         1 5QN       0.431200
     26 N26         -2.4150     3.6360     6.9440 n2         1 5QN      -0.601900
     27 C27         -2.1330     2.4190     7.6970 c3         1 5QN       0.120800
     28 C29          1.3950    -0.0090     2.4110 ca         1 5QN      -0.176600
     29 C30          2.1230    -0.0150     3.6920 c          1 5QN       0.646700
     30 O31          1.5090    -0.0140     4.7400 o          1 5QN      -0.521000
     31 O32          3.4710    -0.0210     3.7000 os         1 5QN      -0.431900
     32 C33          4.1220    -0.0250     4.9980 c3         1 5QN       0.143700
     33 C34          2.0960     0.0000     1.2070 ca         1 5QN       0.022000
     34 H1          -0.5390     0.0030    -0.9390 ha         1 5QN       0.129000
     35 H2          -2.4570    -0.8800     2.9460 h1         1 5QN       0.037700
     36 H3          -2.4500     0.8890     2.9490 h1         1 5QN       0.037700
     37 H4          -2.3240    -0.8350     5.4470 h1         1 5QN       0.051200
     38 H5          -3.7980    -0.0820     4.8230 h1         1 5QN       0.051200
     39 H6          -4.0710     2.2220     4.8260 h1         1 5QN       0.048200
     40 H7          -2.5760     2.5480     3.9340 h1         1 5QN       0.048200
     41 H8          -2.3720     0.2970     7.4380 h1         1 5QN       0.041200
     42 H9          -3.8280     1.2470     7.0800 h1         1 5QN       0.041200
     43 H10         -1.4190     2.9070    -5.1190 hc         1 5QN       0.048700
     44 H11         -2.1890     1.3420    -5.4140 hc         1 5QN       0.048700
     45 H12         -1.9020     2.4550    -6.7590 hc         1 5QN       0.048700
     46 H13         -0.2320     0.6290    -6.7460 h1         1 5QN       0.038200
     47 H14          0.5380     2.1950    -6.4550 h1         1 5QN       0.038200
     48 H15          1.8480     0.6540    -6.9470 ha         1 5QN       0.139000
     49 H16          4.0580    -0.4210    -7.0100 ha         1 5QN       0.134000
     50 H17          5.5670    -2.1760    -6.9390 hc         1 5QN       0.059700
     51 H18          6.3360    -0.6110    -6.6400 hc         1 5QN       0.059700
     52 H19          7.1040    -2.0990    -6.0670 hc         1 5QN       0.059700
     53 H20          3.8340    -1.1170    -2.7710 ha         1 5QN       0.200000
     54 H21          0.4640     0.0590    -2.4460 hn         1 5QN       0.332500
     55 H22         -1.7770     0.0010     1.1810 ha         1 5QN       0.142000
     56 H24         -3.0930     4.6010     5.3190 h4         1 5QN       0.022800
     57 H25         -1.0610     2.2840     7.7690 h1         1 5QN       0.074200
     58 H26         -2.5570     2.5080     8.6900 h1         1 5QN       0.074200
     59 H27          3.8240    -0.9090     5.5480 h1         1 5QN       0.049033
     60 H28          5.1970    -0.0290     4.8620 h1         1 5QN       0.049033
     61 H29          3.8310     0.8600     5.5500 h1         1 5QN       0.049033
     62 H30          3.1790    -0.0020     1.2080 ha         1 5QN       0.182000
     63 O03          0.3760     0.9690    -4.8060 os         1 5QN      -0.339900
@<TRIPOS>BOND
     1     6     7 1
     2     7    63 1
     3     9    10 ar
     4     9     8 ar
     5    63     8 1
     6    10    11 ar
     7     8    16 ar
     8    14    12 2
     9    11    12 1
    10    11    15 ar
    11    16    15 ar
    12    16    17 1
    13    12    13 1
    14    17    18 1
    15    18    19 2
    16    18    20 1
    17    20    33 ar
    18    20     1 ar
    19    33    28 ar
    20     1    21 ar
    21    32    31 1
    22    31    29 1
    23    28    29 1
    24    28    22 ar
    25    29    30 2
    26    21    22 ar
    27    22    23 1
    28    23     2 1
    29    25     4 1
    30    25    26 2
    31     4    24 1
    32     2     3 1
    33     3    24 1
    34    26    27 1
    35    24     5 1
    36    27     5 1
    37     1    34 1
    38     2    35 1
    39     2    36 1
    40     3    37 1
    41     3    38 1
    42     4    39 1
    43     4    40 1
    44     5    41 1
    45     5    42 1
    46     6    43 1
    47     6    44 1
    48     6    45 1
    49     7    46 1
    50     7    47 1
    51     9    48 1
    52    10    49 1
    53    13    50 1
    54    13    51 1
    55    13    52 1
    56    15    53 1
    57    17    54 1
    58    21    55 1
    59    25    56 1
    60    27    57 1
    61    27    58 1
    62    32    59 1
    63    32    60 1
    64    32    61 1
    65    33    62 1
@<TRIPOS>SUBSTRUCTURE
     1 5QN         1 TEMP              0 ****  ****    0 ROOT
