@<TRIPOS>MOLECULE
molecule
   47    48     1     0     0
SMALL
bcc


@<TRIPOS>ATOM
      1 O2           0.0000     0.0000     0.0000 oh         1 5QP      -0.583800
      2 C2           1.4290     0.0000     0.0000 c3         1 5QP       0.124100
      3 C3           1.9420     0.0000     1.4430 c3         1 5QP       0.113100
      4 O3           1.5300    -1.2030     2.0970 oh         1 5QP      -0.611800
      5 C4           3.4710     0.0780     1.4290 c3         1 5QP       0.107100
      6 O4           3.9570     0.1520     2.7720 oh         1 5QP      -0.602800
      7 C5           3.9050     1.3280     0.6590 c3         1 5QP       0.138100
      8 C6           5.4320     1.3820     0.5910 c3         1 5QP       0.149400
      9 O6           5.8380     2.6060    -0.0250 oh         1 5QP      -0.605800
     10 O5           3.3680     1.2800    -0.6640 os         1 5QP      -0.422600
     11 C1           1.9410     1.2530    -0.7160 c3         1 5QP       0.320900
     12 O1           1.4200     2.4160    -0.0700 os         1 5QP      -0.422600
     13 CAX          1.6060     3.6250    -0.8110 c3         1 5QP       0.154100
     14 CAT          0.4640     3.7880    -1.8160 c3         1 5QP       0.127100
     15 OAI          0.4570     2.6750    -2.7140 oh         1 5QP      -0.615800
     16 CAO          0.6630     5.0800    -2.6090 c3         1 5QP       0.120100
     17 OAD         -0.4030     5.2330    -3.5470 oh         1 5QP      -0.607800
     18 CAN          0.6700     6.2710    -1.6480 c3         1 5QP      -0.139400
     19 CAR          1.8120     6.1090    -0.6430 c3         1 5QP       0.157100
     20 OAG          1.8190     7.2210     0.2550 oh         1 5QP      -0.571800
     21 CAV          1.6130     4.8150     0.1500 c3         1 5QP      -0.061700
     22 CAK          2.7540     4.6520     1.1550 c3         1 5QP       0.146400
     23 OAB          2.6890     5.7000     2.1240 oh         1 5QP      -0.590800
     24 H21         -0.3140    -0.8210    -0.3420 ho         1 5QP       0.407000
     25 H22          1.7950    -0.8820    -0.5120 h1         1 5QP       0.059700
     26 H31          1.5420     0.8590     1.9680 h1         1 5QP       0.077700
     27 H32          1.0050    -0.9870     2.8500 ho         1 5QP       0.415000
     28 H41          3.8730    -0.8030     0.9420 h1         1 5QP       0.050700
     29 H42          4.2930    -0.6900     3.0310 ho         1 5QP       0.412000
     30 H51          3.5310     2.2090     1.1660 h1         1 5QP       0.075700
     31 H62          5.8400     1.3300     1.5930 h1         1 5QP       0.035200
     32 H61          5.7970     0.5450     0.0080 h1         1 5QP       0.035200
     33 H63          6.7750     2.6060    -0.1350 ho         1 5QP       0.404000
     34 H11          1.6190     1.2320    -1.7500 h2         1 5QP       0.117700
     35 HAX1         2.5490     3.5870    -1.3420 h1         1 5QP       0.066700
     36 HAT1        -0.4790     3.8340    -1.2840 h1         1 5QP       0.063700
     37 HAI1        -0.3940     2.5990    -3.1130 ho         1 5QP       0.418000
     38 HAO1         1.6090     5.0370    -3.1350 h1         1 5QP       0.042700
     39 HAD1        -0.0710     5.6160    -4.3420 ho         1 5QP       0.407000
     40 HAN1        -0.2730     6.3110    -1.1180 hc         1 5QP       0.060700
     41 H1           0.8130     7.1860    -2.2110 hc         1 5QP       0.060700
     42 HAR1         2.7550     6.0620    -1.1750 h1         1 5QP       0.030700
     43 HAG1         2.2210     7.9630    -0.1670 ho         1 5QP       0.396000
     44 HAV1         0.6660     4.8580     0.6750 hc         1 5QP       0.088700
     45 HAK1         2.6640     3.6940     1.6530 h1         1 5QP       0.031200
     46 HAK2         3.7030     4.7000     0.6350 h1         1 5QP       0.031200
     47 HAB1         3.2560     5.4940     2.8490 ho         1 5QP       0.395000
@<TRIPOS>BOND
     1    18    16 1   
     2    18    19 1   
     3    20    19 1   
     4    17    16 1   
     5    16    14 1   
     6    19    21 1   
     7    21    13 1   
     8    21    22 1   
     9    14    15 1   
    10    14    13 1   
    11    23    22 1   
    12    13    12 1   
    13    12    11 1   
    14    10    11 1   
    15    10     7 1   
    16    11     2 1   
    17     8     7 1   
    18     8     9 1   
    19     7     5 1   
    20     2     1 1   
    21     2     3 1   
    22     5     3 1   
    23     5     6 1   
    24     3     4 1   
    25     1    24 1   
    26     2    25 1   
    27     3    26 1   
    28     4    27 1   
    29     5    28 1   
    30     6    29 1   
    31     7    30 1   
    32     8    31 1   
    33     8    32 1   
    34     9    33 1   
    35    11    34 1   
    36    13    35 1   
    37    14    36 1   
    38    15    37 1   
    39    16    38 1   
    40    17    39 1   
    41    18    40 1   
    42    18    41 1   
    43    19    42 1   
    44    20    43 1   
    45    21    44 1   
    46    22    45 1   
    47    22    46 1   
    48    23    47 1   
@<TRIPOS>SUBSTRUCTURE
     1 5QP         1 TEMP              0 ****  ****    0 ROOT
