@<TRIPOS>MOLECULE
molecule
   40    44     1     0     0
SMALL
bcc


@<TRIPOS>ATOM
      1 C13          0.0000     0.0000     0.0000 c3         1 5QQ       0.485600
      2 C17         -1.7180     1.2120    -1.3660 ca         1 5QQ      -0.086000
      3 C21         -4.9510    -1.0690    -3.9040 ca         1 5QQ       0.442200
      4 C22         -4.4600    -2.3120    -3.5140 ca         1 5QQ      -0.260300
      5 C24         -2.8130    -1.1860    -2.2190 ca         1 5QQ      -0.163300
      6 C28          4.1540    -0.0070     3.6230 ca         1 5QQ      -0.064500
      7 C02          6.0900    -0.0070     5.0340 ca         1 5QQ       0.162900
      8 C03          6.9140    -0.0070     3.9190 ca         1 5QQ      -0.171000
      9 C04          6.3630     0.0050     2.6540 ca         1 5QQ      -0.064500
     10 C05          4.9780     0.0000     2.4980 ca         1 5QQ      -0.182500
     11 C06          4.3820     0.0000     1.1400 cc         1 5QQ       0.355500
     12 C07          5.2170     0.0000     0.0000 cd         1 5QQ       0.337900
     13 N08          4.7060     0.0000    -1.2050 nc         1 5QQ      -0.577000
     14 C09          3.3810    -0.0000    -1.3880 cc         1 5QQ       0.309500
     15 N10          2.6090    -0.0010    -2.4630 nd         1 5QQ      -0.031000
     16 N11          1.3730    -0.0010    -2.1060 nd         1 5QQ      -0.303700
     17 C12          1.2770    -0.0010    -0.8010 cc         1 5QQ       0.279800
     18 F14         -0.0450    -1.1420     0.8070 f          1 5QQ      -0.216800
     19 F15         -0.0440     1.1420     0.8060 f          1 5QQ      -0.216800
     20 C16         -1.1790    -0.0000    -0.9370 ca         1 5QQ      -0.145300
     21 C18         -2.7860     1.2470    -2.2070 ca         1 5QQ      -0.161300
     22 C19         -3.3620     0.0450    -2.6550 ca         1 5QQ       0.435600
     23 N20         -4.4120     0.0500    -3.4830 nb         1 5QQ      -0.682000
     24 C23         -3.3880    -2.3880    -2.6700 ca         1 5QQ      -0.067000
     25 C25         -1.7050    -1.1840    -1.3550 ca         1 5QQ      -0.054000
     26 N26          2.5380    -0.0000    -0.3000 na         1 5QQ      -0.051500
     27 N27          3.0720    -0.0060     0.9920 nd         1 5QQ      -0.431800
     28 C29          4.7130    -0.0070     4.8850 ca         1 5QQ      -0.171000
     29 H1          -1.2790     2.1410    -1.0220 ha         1 5QQ       0.146000
     30 H2          -5.8010    -1.0240    -4.5740 h4         1 5QQ       0.024100
     31 H3          -4.9280    -3.2180    -3.8800 ha         1 5QQ       0.140000
     32 H4           3.0770    -0.0090     3.5070 ha         1 5QQ       0.152500
     33 H5           7.9900    -0.0030     4.0410 ha         1 5QQ       0.156500
     34 H6           7.0070     0.0080     1.7830 ha         1 5QQ       0.152500
     35 H7           6.2930    -0.0000     0.1250 h4         1 5QQ       0.052100
     36 H8          -3.1920     2.1980    -2.5300 ha         1 5QQ       0.155000
     37 H9          -2.9940    -3.3470    -2.3560 ha         1 5QQ       0.142000
     38 H10         -1.3430    -2.1150    -0.9360 ha         1 5QQ       0.146000
     39 H11          4.0740    -0.0120     5.7600 ha         1 5QQ       0.156500
     40 F01          6.6340    -0.0070     6.2720 f          1 5QQ      -0.130900
@<TRIPOS>BOND
     1    13    12 2
     2    13    14 1
     3    12    11 1
     4     9     8 ar
     5     9    10 ar
     6    14    15 2
     7    14    26 1
     8    15    16 1
     9     8     7 ar
    10    11    10 1
    11    11    27 2
    12    10     6 ar
    13    26    27 1
    14    26    17 1
    15    16    17 2
    16     7    40 1
    17     7    28 ar
    18     6    28 ar
    19    17     1 1
    20    21     2 ar
    21    21    22 ar
    22     2    20 ar
    23    23    22 ar
    24    23     3 ar
    25    22     5 ar
    26    20     1 1
    27    20    25 ar
    28     1    18 1
    29     1    19 1
    30     3     4 ar
    31     5    25 ar
    32     5    24 ar
    33     4    24 ar
    34     2    29 1
    35     3    30 1
    36     4    31 1
    37     6    32 1
    38     8    33 1
    39     9    34 1
    40    12    35 1
    41    21    36 1
    42    24    37 1
    43    25    38 1
    44    28    39 1
@<TRIPOS>SUBSTRUCTURE
     1 5QQ         1 TEMP              0 ****  ****    0 ROOT
