@<TRIPOS>MOLECULE
molecule
   31    32     1     0     0
SMALL
bcc


@<TRIPOS>ATOM
      1 C10          0.0000     0.0000     0.0000 ca         1 5QR      -0.151000
      2 C13          3.5550     0.0020     1.2130 c          1 5QR       0.883200
      3 C17         -2.0930     0.2080     6.1120 cc         1 5QR      -0.027000
      4 C19         -2.1530    -0.4090     8.4200 c          1 5QR       0.683700
      5 N02         -1.0320    -1.1400     8.2750 n          1 5QR      -0.311000
      6 C01         -0.4830    -1.8540     9.4290 c3         1 5QR       0.081300
      7 C18         -2.7060     0.2770     7.3240 cd         1 5QR      -0.280200
      8 C04         -0.9110    -0.5620     5.9830 cd         1 5QR      -0.265200
      9 C03         -0.4080    -1.2230     7.0850 cc         1 5QR       0.067600
     10 C05         -0.2240    -0.6570     4.6820 c          1 5QR       0.676300
     11 O06          0.7900    -1.3190     4.5770 o          1 5QR      -0.584100
     12 N07         -0.7210    -0.0090     3.6100 ns         1 5QR      -0.467100
     13 C08         -0.0110    -0.0070     2.4040 ca         1 5QR       0.007600
     14 C16          1.3750    -0.0130     2.4150 ca         1 5QR      -0.093000
     15 C12          2.0770     0.0000     1.2090 ca         1 5QR      -0.090600
     16 O15          4.2310     0.0040     0.0470 o          1 5QR      -0.834300
     17 O14          4.1600     0.0020     2.2660 o          1 5QR      -0.834300
     18 C11          1.3800     0.0000     0.0000 ca         1 5QR      -0.103000
     19 C09         -0.6960    -0.0010     1.1940 ca         1 5QR      -0.182000
     20 H1          -0.5400     0.0020    -0.9390 ha         1 5QR       0.107000
     21 H2          -2.5040     0.7320     5.2570 ha         1 5QR       0.134000
     22 H3          -0.2340    -1.1440    10.2090 h1         1 5QR       0.057367
     23 H4           0.4100    -2.3900     9.1310 h1         1 5QR       0.057367
     24 H5          -1.2180    -2.5570     9.8020 h1         1 5QR       0.057367
     25 H6          -3.6110     0.8600     7.4450 ha         1 5QR       0.160000
     26 H7           0.4940    -1.8150     6.9920 h4         1 5QR       0.188000
     27 H8          -1.5810     0.4980     3.6850 hn         1 5QR       0.306500
     28 H9           1.9100     0.0740     3.3530 ha         1 5QR       0.169000
     29 H11          1.9220     0.0010    -0.9380 ha         1 5QR       0.155000
     30 H12         -1.7790    -0.0010     1.1870 ha         1 5QR       0.100000
     31 O20         -2.6990    -0.3500     9.5090 o          1 5QR      -0.667500
@<TRIPOS>BOND
     1    17     2 1
     2     2    16 1
     3     2    15 1
     4    15    18 ar
     5    15    14 ar
     6    18     1 ar
     7     1    19 ar
     8    14    13 ar
     9    13    19 ar
    10    13    12 1
    11    12    10 1
    12     6     5 1
    13     9     5 1
    14     9     8 2
    15    10    11 2
    16    10     8 1
    17     5     4 1
    18     8     3 1
    19     4    31 2
    20     4     7 1
    21     3     7 2
    22     1    20 1
    23     3    21 1
    24     6    22 1
    25     6    23 1
    26     6    24 1
    27     7    25 1
    28     9    26 1
    29    12    27 1
    30    14    28 1
    31    18    29 1
    32    19    30 1
@<TRIPOS>SUBSTRUCTURE
     1 5QR         1 TEMP              0 ****  ****    0 ROOT
