@<TRIPOS>MOLECULE
5QR
   31    32     1     0     0
SMALL
bcc


@<TRIPOS>ATOM
      1 C10          0.0000     0.0000     0.0000 ca         1 5QR      -0.131000
      2 C13          3.5550     0.0020     1.2130 c          1 5QR       0.973200
      3 C17         -2.0930     0.2080     6.1120 cc         1 5QR      -0.005000
      4 C19         -2.1530    -0.4090     8.4200 c          1 5QR       0.585700
      5 N02         -1.0320    -1.1400     8.2750 n          1 5QR       0.133000
      6 C01         -0.4830    -1.8540     9.4290 c3         1 5QR       0.045300
      7 C18         -2.7060     0.2770     7.3240 cd         1 5QR      -0.259200
      8 C04         -0.9110    -0.5620     5.9830 cc         1 5QR      -0.264200
      9 C03         -0.4080    -1.2230     7.0850 cd         1 5QR      -0.075400
     10 C05         -0.2240    -0.6570     4.6820 c          1 5QR       0.580300
     11 O06          0.7900    -1.3190     4.5770 o          1 5QR      -0.624100
     12 N07         -0.7210    -0.0090     3.6100 ns         1 5QR      -0.019100
     13 C08         -0.0110    -0.0070     2.4040 ca         1 5QR      -0.147400
     14 C16          1.3750    -0.0130     2.4150 ca         1 5QR      -0.062000
     15 C12          2.0770     0.0000     1.2090 ca         1 5QR      -0.090600
     16 O15          4.2310     0.0040     0.0470 o          1 5QR      -0.882300
     17 O14          4.1600     0.0020     2.2660 o          1 5QR      -0.882300
     18 C11          1.3800     0.0000     0.0000 ca         1 5QR      -0.070000
     19 C09         -0.6960    -0.0010     1.1940 ca         1 5QR      -0.157000
     20 H1          -0.5400     0.0020    -0.9390 ha         1 5QR       0.084000
     21 H2          -2.5040     0.7320     5.2570 ha         1 5QR       0.106000
     22 H3          -0.2340    -1.1440    10.2090 h1         1 5QR       0.025700
     23 H4           0.4100    -2.3900     9.1310 h1         1 5QR       0.025700
     24 H5          -1.2180    -2.5570     9.8020 h1         1 5QR       0.025700
     25 H6          -3.6110     0.8600     7.4450 ha         1 5QR       0.133000
     26 H7           0.4940    -1.8150     6.9920 h4         1 5QR       0.158000
     27 H8          -1.5810     0.4980     3.6850 hn         1 5QR       0.153500
     28 H9           1.9100     0.0740     3.3530 ha         1 5QR       0.148000
     29 H11          1.9220     0.0010    -0.9380 ha         1 5QR       0.129000
     30 H12         -1.7790    -0.0010     1.1870 ha         1 5QR       0.082000
     31 O20         -2.6990    -0.3500     9.5090 o          1 5QR      -0.718500
@<TRIPOS>BOND
     1     1    18 ar  
     2     1    19 ar  
     3     1    20 1   
     4     2    15 1   
     5     2    16 1   
     6     2    17 1   
     7     3     7 2   
     8     3     8 1   
     9     3    21 1   
    10     4     5 1   
    11     4     7 1   
    12     4    31 2   
    13     5     6 1   
    14     5     9 1   
    15     6    22 1   
    16     6    23 1   
    17     6    24 1   
    18     7    25 1   
    19     8     9 2   
    20     8    10 1   
    21     9    26 1   
    22    10    11 2   
    23    10    12 1   
    24    12    13 1   
    25    12    27 1   
    26    13    14 ar  
    27    13    19 ar  
    28    14    15 ar  
    29    14    28 1   
    30    15    18 ar  
    31    18    29 1   
    32    19    30 1   
@<TRIPOS>SUBSTRUCTURE
     1 5QR         1 TEMP              0 ****  ****    0 ROOT
