@<TRIPOS>MOLECULE
5QS
   54    57     1     0     0
SMALL
bcc


@<TRIPOS>ATOM
      1 C1           0.0000     0.0000     0.0000 c3         1 5QS       0.145800
      2 C2           1.5300     0.0000     0.0000 c3         1 5QS      -0.033600
      3 C3          -0.5100     0.0000     1.4430 c3         1 5QS       0.214800
      4 C11          0.6820     4.5790    11.3530 ca         1 5QS       0.034600
      5 C12          1.6150     4.3950    12.3740 ca         1 5QS      -0.252300
      6 C13          1.3340     4.8820    13.6340 ca         1 5QS       0.425200
      7 C14         -0.7020     5.7160    12.9370 ca         1 5QS       0.425200
      8 C15         -0.5000     5.2560    11.6530 ca         1 5QS      -0.252300
      9 C16          0.1720     3.3050     5.0010 ca         1 5QS       0.520600
     10 C17          0.7560     4.5960     5.5150 c3         1 5QS      -0.040700
     11 C18          2.1850     4.3500     6.0020 cx         1 5QS      -0.088700
     12 C19          2.9140     5.5180     6.6700 cx         1 5QS      -0.086400
     13 C20          3.3170     5.0680     5.2640 cx         1 5QS      -0.086400
     14 O           -0.4760     1.1670    -0.6730 oh         1 5QS      -0.588800
     15 C           -0.5100    -1.2490    -0.7220 c3         1 5QS      -0.033600
     16 N           -0.0210     1.1960     2.1340 nu         1 5QS      -0.409900
     17 C4          -0.1130     1.7800     3.3010 ca         1 5QS       0.739900
     18 N6           0.3920     2.9160     3.7580 nb         1 5QS      -0.692000
     19 C6          -0.6080     2.4980     5.8360 cp         1 5QS      -0.516100
     20 C5          -1.1270     1.3090     5.3130 ca         1 5QS       0.536200
     21 N1          -0.8650     0.9930     4.0590 nb         1 5QS      -0.786000
     22 C7          -0.8750     2.8910     7.2390 cp         1 5QS       0.560800
     23 N5           0.1130     3.3160     8.0230 nb         1 5QS      -0.680000
     24 C10         -0.1250     3.6670     9.2780 ca         1 5QS       0.700900
     25 N2          -1.3420     3.6140     9.7970 nb         1 5QS      -0.691000
     26 C9          -2.3730     3.2020     9.0750 ca         1 5QS       0.486200
     27 C8          -2.1730     2.8290     7.7590 ca         1 5QS      -0.405600
     28 N3           0.9280     4.1030    10.0670 nu         1 5QS      -0.284300
     29 N4           0.2010     5.5130    13.8790 nb         1 5QS      -0.607000
     30 H1           1.8910    -0.6620     0.7780 hc         1 5QS       0.016867
     31 H2           1.8910     1.0050     0.1840 hc         1 5QS       0.016867
     32 H3           1.8910    -0.3430    -0.9620 hc         1 5QS       0.016867
     33 H4          -1.5930     0.0010     1.4430 h1         1 5QS       0.032700
     34 H5          -0.1490    -0.8850     1.9540 h1         1 5QS       0.032700
     35 H6           2.5460     3.8770    12.1810 ha         1 5QS       0.129000
     36 H7           2.0510     4.7390    14.4340 h4         1 5QS      -0.022400
     37 H8          -1.6180     6.2410    13.1800 h4         1 5QS      -0.022400
     38 H9          -1.2470     5.4230    10.8860 ha         1 5QS       0.129000
     39 H10          0.1520     4.9640     6.3360 hc         1 5QS       0.031700
     40 H11          0.7670     5.3290     4.7180 hc         1 5QS       0.031700
     41 H12          2.4450     3.3720     6.3900 hc         1 5QS       0.066700
     42 H13          3.6020     5.2480     7.4620 hc         1 5QS       0.043700
     43 H14          2.3590     6.4470     6.7230 hc         1 5QS       0.043700
     44 H15          3.0080     5.7220     4.4570 hc         1 5QS       0.043700
     45 H16          4.2510     4.5230     5.1970 hc         1 5QS       0.043700
     46 H17         -0.3500     1.0680    -1.6020 ho         1 5QS       0.402000
     47 H18         -1.5930    -1.2330    -0.7500 hc         1 5QS       0.016867
     48 H19         -0.1770    -2.1330    -0.1920 hc         1 5QS       0.016867
     49 H20         -0.1220    -1.2660    -1.7330 hc         1 5QS       0.016867
     50 H21          0.5260     1.8710     1.6380 hn         1 5QS       0.266800
     51 H22         -1.7390     0.6590     5.9270 h4         1 5QS      -0.021900
     52 H23         -3.3650     3.1640     9.5090 h4         1 5QS      -0.016900
     53 H24         -2.9990     2.4880     7.1470 ha         1 5QS       0.131000
     54 H25          1.8680     4.0340     9.7300 hn         1 5QS       0.296800
@<TRIPOS>BOND
     1     1     2 1   
     2     1     3 1   
     3     1    14 1   
     4     1    15 1   
     5     2    30 1   
     6     2    31 1   
     7     2    32 1   
     8     3    16 1   
     9     3    33 1   
    10     3    34 1   
    11     4     5 ar  
    12     4     8 ar  
    13     4    28 1   
    14     5     6 ar  
    15     5    35 1   
    16     6    29 ar  
    17     6    36 1   
    18     7     8 ar  
    19     7    29 ar  
    20     7    37 1   
    21     8    38 1   
    22     9    10 1   
    23     9    18 ar  
    24     9    19 ar  
    25    10    11 1   
    26    10    39 1   
    27    10    40 1   
    28    11    12 1   
    29    11    13 1   
    30    11    41 1   
    31    12    13 1   
    32    12    42 1   
    33    12    43 1   
    34    13    44 1   
    35    13    45 1   
    36    14    46 1   
    37    15    47 1   
    38    15    48 1   
    39    15    49 1   
    40    16    17 1   
    41    16    50 1   
    42    17    18 ar  
    43    17    21 ar  
    44    19    20 ar  
    45    19    22 1   
    46    20    21 ar  
    47    20    51 1   
    48    22    23 ar  
    49    22    27 ar  
    50    23    24 ar  
    51    24    25 ar  
    52    24    28 1   
    53    25    26 ar  
    54    26    27 ar  
    55    26    52 1   
    56    27    53 1   
    57    28    54 1   
@<TRIPOS>SUBSTRUCTURE
     1 5QS         1 TEMP              0 ****  ****    0 ROOT
