@<TRIPOS>MOLECULE
molecule
   34    34     1     0     0
SMALL
bcc


@<TRIPOS>ATOM
      1 C11          0.0000     0.0000     0.0000 cc         1 5QT       0.602200
      2 C14          1.4370    -0.0120     2.3350 c          1 5QT       0.762500
      3 C17          1.4710     0.0000     0.0000 cs         1 5QT       0.311100
      4 C01         -6.4110    -0.0020    -5.7550 c3         1 5QT      -0.082100
      5 C02         -5.9630    -0.0030    -4.2910 c3         1 5QT      -0.072000
      6 C03         -6.5040     1.2470    -3.5930 c3         1 5QT      -0.082100
      7 C04         -6.5040    -1.2520    -3.5930 c3         1 5QT      -0.082100
      8 C05         -4.4340    -0.0020    -4.2250 c3         1 5QT       0.158400
      9 O06         -4.0100    -0.0010    -2.8370 os         1 5QT      -0.422900
     10 C07         -2.6880    -0.0010    -2.6040 c          1 5QT       0.623100
     11 O08         -1.9110     0.0000    -3.5300 o          1 5QT      -0.543000
     12 C09         -2.1730    -0.0010    -1.1880 c3         1 5QT       0.195800
     13 N10         -0.7080    -0.0000    -1.2010 nu         1 5QT      -0.849200
     14 N12         -0.6330    -0.0070     1.1450 nd         1 5QT      -0.528300
     15 N13          0.0930    -0.0120     2.3420 ns         1 5QT      -0.303900
     16 O15          2.0410    -0.0120     3.3910 o          1 5QT      -0.641500
     17 N16          2.1260     0.0000     1.1790 ns         1 5QT      -0.465500
     18 S18          2.3380     0.0010    -1.4760 s          1 5QT      -0.490400
     19 H1          -6.0280     0.8830    -6.2490 hc         1 5QT       0.039589
     20 H2          -7.4930    -0.0020    -5.8020 hc         1 5QT       0.039589
     21 H3          -6.0280    -0.8860    -6.2500 hc         1 5QT       0.039589
     22 H4          -6.3170     1.1760    -2.5280 hc         1 5QT       0.039589
     23 H5          -6.0090     2.1250    -3.9890 hc         1 5QT       0.039589
     24 H6          -7.5710     1.3250    -3.7670 hc         1 5QT       0.039589
     25 H7          -6.0080    -2.1300    -3.9900 hc         1 5QT       0.039589
     26 H8          -6.3160    -1.1810    -2.5290 hc         1 5QT       0.039589
     27 H9          -7.5700    -1.3300    -3.7680 hc         1 5QT       0.039589
     28 H10         -4.0520     0.8830    -4.7200 h1         1 5QT       0.053700
     29 H11         -4.0510    -0.8860    -4.7200 h1         1 5QT       0.053700
     30 H12         -2.5290    -0.8860    -0.6740 h1         1 5QT       0.081200
     31 H13         -2.5300     0.8830    -0.6740 h1         1 5QT       0.081200
     32 H14         -0.2150     0.0010    -2.0720 hn         1 5QT       0.503800
     33 H15         -0.3960    -0.0170     3.2150 hn         1 5QT       0.393500
     34 H16          3.1270     0.0000     1.1940 hn         1 5QT       0.384500
@<TRIPOS>BOND
     1     9     8 1
     2     9    10 1
     3     7     5 1
     4    12    10 1
     5    12    13 1
     6     8     5 1
     7    10    11 2
     8     5     6 1
     9     5     4 1
    10    13     1 1
    11    14     1 2
    12    14    15 1
    13     1     3 1
    14    15     2 1
    15     3    18 2
    16     3    17 1
    17     2    17 1
    18     2    16 2
    19     4    19 1
    20     4    20 1
    21     4    21 1
    22     6    22 1
    23     6    23 1
    24     6    24 1
    25     7    25 1
    26     7    26 1
    27     7    27 1
    28     8    28 1
    29     8    29 1
    30    12    30 1
    31    12    31 1
    32    13    32 1
    33    15    33 1
    34    17    34 1
@<TRIPOS>SUBSTRUCTURE
     1 5QT         1 TEMP              0 ****  ****    0 ROOT
