@<TRIPOS>MOLECULE
molecule
   47    49     1     0     0
SMALL
bcc


@<TRIPOS>ATOM
      1 C10          0.0000     0.0000     0.0000 ca         1 5QW       0.000900
      2 C17         -1.5560    -1.6890    -1.5960 c3         1 5QW       0.013700
      3 C20          7.4240     1.0300     3.3110 c3         1 5QW       0.118300
      4 C21          7.7140     2.1920     2.3570 c3         1 5QW       0.139400
      5 C24          5.8210     2.4160     4.4800 c3         1 5QW       0.118300
      6 C01          6.4660     0.1350     5.9890 c3         1 5QW      -0.129100
      7 C02          5.7010     0.0050     4.6700 c3         1 5QW       0.146500
      8 C03          4.1970     0.0080     4.9500 c3         1 5QW       0.121000
      9 N04          3.4640     0.0040     3.6820 ns         1 5QW      -0.569900
     10 C05          2.1160     0.0070     3.6820 c          1 5QW       0.666700
     11 O06          1.5090     0.0130     4.7360 o          1 5QW      -0.610100
     12 C07          1.3780     0.0030     2.4050 ca         1 5QW      -0.108600
     13 C08          2.0770     0.0000     1.1940 ca         1 5QW      -0.130000
     14 C09          1.3900     0.0000     0.0000 ca         1 5QW      -0.076000
     15 C11         -0.7040     0.0010     1.2060 ca         1 5QW       0.067600
     16 C12         -0.0210     0.0060     2.4050 ca         1 5QW      -0.099000
     17 N13         -2.1080    -0.0060     1.1880 ns         1 5QW      -0.475100
     18 C14         -2.7610    -0.9080     0.4450 c          1 5QW       0.709500
     19 O15         -3.9560    -0.7900     0.2770 o          1 5QW      -0.623500
     20 C16         -2.0370    -2.0610    -0.1840 c3         1 5QW      -0.165400
     21 S18         -0.8930     0.0070    -1.5200 ss         1 5QW      -0.274000
     22 N19          6.0400     1.1340     3.7940 n3         1 5QW      -0.731600
     23 O22          7.4680     3.4290     3.0320 os         1 5QW      -0.422600
     24 C23          6.1290     3.5630     3.5150 c3         1 5QW       0.139400
     25 H1          -0.7760    -2.3730    -1.9090 h1         1 5QW       0.082200
     26 H2          -2.3870    -1.7280    -2.2890 h1         1 5QW       0.082200
     27 H4           8.1040     1.0760     4.1530 h1         1 5QW       0.047200
     28 H5           7.0670     2.1180     1.4920 h1         1 5QW       0.054200
     29 H6           8.7510     2.1520     2.0450 h1         1 5QW       0.054200
     30 H7           6.4780     2.4820     5.3390 h1         1 5QW       0.047200
     31 H8           4.7890     2.4820     4.8010 h1         1 5QW       0.047200
     32 H9           6.0650     0.9650     6.5580 hc         1 5QW       0.045700
     33 H10          6.3600    -0.7800     6.5590 hc         1 5QW       0.045700
     34 H11          7.5150     0.3120     5.7820 hc         1 5QW       0.045700
     35 H12          5.9760    -0.9240     4.1840 h1         1 5QW       0.065700
     36 H13          3.9340    -0.8730     5.5220 h1         1 5QW       0.056700
     37 H14          3.9370     0.8960     5.5140 h1         1 5QW       0.056700
     38 H15          3.9630    -0.0480     2.8160 hn         1 5QW       0.327500
     39 H16          3.1600    -0.0050     1.1940 ha         1 5QW       0.136000
     40 H17          1.9320    -0.0020    -0.9380 ha         1 5QW       0.152000
     41 H18         -0.5630     0.1190     3.3370 ha         1 5QW       0.168000
     42 H19         -2.6190     0.6630     1.7290 hn         1 5QW       0.345500
     43 H20         -2.7220    -2.8980    -0.2620 hc         1 5QW       0.076700
     44 H21         -1.1730    -2.3000     0.4240 hc         1 5QW       0.076700
     45 H23          5.4390     3.5270     2.6800 h1         1 5QW       0.054200
     46 H24          6.0260     4.5080     4.0350 h1         1 5QW       0.054200
     47 H3           7.5520     0.0910     2.7860 h1         1 5QW       0.047200
@<TRIPOS>BOND
     1     4    23 1   
     2     4     3 1   
     3    23    24 1   
     4     3    22 1   
     5    11    10 2   
     6    13    14 ar  
     7    13    12 ar  
     8    10    12 1   
     9    10     9 1   
    10    24     5 1   
    11    14     1 ar  
    12    22     7 1   
    13    22     5 1   
    14     8     9 1   
    15     8     7 1   
    16    12    16 ar  
    17     7     6 1   
    18     1    21 1   
    19     1    15 ar  
    20     2    20 1   
    21     2    21 1   
    22    16    15 ar  
    23    20    18 1   
    24    15    17 1   
    25    18    17 1   
    26    18    19 2   
    27     2    25 1   
    28     2    26 1   
    29     3    47 1   
    30     3    27 1   
    31     4    28 1   
    32     4    29 1   
    33     5    30 1   
    34     5    31 1   
    35     6    32 1   
    36     6    33 1   
    37     6    34 1   
    38     7    35 1   
    39     8    36 1   
    40     8    37 1   
    41     9    38 1   
    42    13    39 1   
    43    14    40 1   
    44    16    41 1   
    45    17    42 1   
    46    20    43 1   
    47    20    44 1   
    48    24    45 1   
    49    24    46 1   
@<TRIPOS>SUBSTRUCTURE
     1 5QW         1 TEMP              0 ****  ****    0 ROOT
