@<TRIPOS>MOLECULE
5QW
   47    49     1     0     0
SMALL
bcc


@<TRIPOS>ATOM
      1 C10          0.0000     0.0000     0.0000 ca         1 5QW       0.013900
      2 C17         -1.5560    -1.6890    -1.5960 c3         1 5QW       0.110700
      3 C20          7.4240     1.0300     3.3110 c3         1 5QW       0.099300
      4 C21          7.7140     2.1920     2.3570 c3         1 5QW       0.215900
      5 C24          5.8210     2.4160     4.4800 c3         1 5QW       0.099300
      6 C01          6.4660     0.1350     5.9890 c3         1 5QW      -0.039100
      7 C02          5.7010     0.0050     4.6700 c3         1 5QW       0.113500
      8 C03          4.1970     0.0080     4.9500 c3         1 5QW       0.048000
      9 N04          3.4640     0.0040     3.6820 ns         1 5QW      -0.182900
     10 C05          2.1160     0.0070     3.6820 c          1 5QW       0.583700
     11 O06          1.5090     0.0130     4.7360 o          1 5QW      -0.651100
     12 C07          1.3780     0.0030     2.4050 ca         1 5QW      -0.108600
     13 C08          2.0770     0.0000     1.1940 ca         1 5QW      -0.111000
     14 C09          1.3900     0.0000     0.0000 ca         1 5QW      -0.034000
     15 C11         -0.7040     0.0010     1.2060 ca         1 5QW      -0.067400
     16 C12         -0.0210     0.0060     2.4050 ca         1 5QW      -0.065000
     17 N13         -2.1080    -0.0060     1.1880 ns         1 5QW      -0.033100
     18 C14         -2.7610    -0.9080     0.4450 c          1 5QW       0.610500
     19 O15         -3.9560    -0.7900     0.2770 o          1 5QW      -0.661500
     20 C16         -2.0370    -2.0610    -0.1840 c3         1 5QW      -0.115400
     21 S18         -0.8930     0.0070    -1.5200 ss         1 5QW      -0.351000
     22 N19          6.0400     1.1340     3.7940 n3         1 5QW      -0.546600
     23 O22          7.4680     3.4290     3.0320 os         1 5QW      -0.408600
     24 C23          6.1290     3.5630     3.5150 c3         1 5QW       0.215900
     25 H1          -0.7760    -2.3730    -1.9090 h1         1 5QW       0.053700
     26 H2          -2.3870    -1.7280    -2.2890 h1         1 5QW       0.053700
     27 H4           8.1040     1.0760     4.1530 h1         1 5QW       0.025200
     28 H5           7.0670     2.1180     1.4920 h1         1 5QW       0.013200
     29 H6           8.7510     2.1520     2.0450 h1         1 5QW       0.013200
     30 H7           6.4780     2.4820     5.3390 h1         1 5QW       0.025200
     31 H8           4.7890     2.4820     4.8010 h1         1 5QW       0.025200
     32 H9           6.0650     0.9650     6.5580 hc         1 5QW       0.018367
     33 H10          6.3600    -0.7800     6.5590 hc         1 5QW       0.018367
     34 H11          7.5150     0.3120     5.7820 hc         1 5QW       0.018367
     35 H12          5.9760    -0.9240     4.1840 h1         1 5QW       0.037700
     36 H13          3.9340    -0.8730     5.5220 h1         1 5QW       0.033200
     37 H14          3.9370     0.8960     5.5140 h1         1 5QW       0.033200
     38 H15          3.9630    -0.0480     2.8160 hn         1 5QW       0.191500
     39 H16          3.1600    -0.0050     1.1940 ha         1 5QW       0.112000
     40 H17          1.9320    -0.0020    -0.9380 ha         1 5QW       0.124000
     41 H18         -0.5630     0.1190     3.3370 ha         1 5QW       0.139000
     42 H19         -2.6190     0.6630     1.7290 hn         1 5QW       0.189500
     43 H20         -2.7220    -2.8980    -0.2620 hc         1 5QW       0.044700
     44 H21         -1.1730    -2.3000     0.4240 hc         1 5QW       0.044700
     45 H23          5.4390     3.5270     2.6800 h1         1 5QW       0.013200
     46 H24          6.0260     4.5080     4.0350 h1         1 5QW       0.013200
     47 H3           7.5520     0.0910     2.7860 h1         1 5QW       0.025200
@<TRIPOS>BOND
     1     1    14 ar  
     2     1    15 ar  
     3     1    21 1   
     4     2    20 1   
     5     2    21 1   
     6     2    25 1   
     7     2    26 1   
     8     3     4 1   
     9     3    22 1   
    10     3    27 1   
    11     3    47 1   
    12     4    23 1   
    13     4    28 1   
    14     4    29 1   
    15     5    22 1   
    16     5    24 1   
    17     5    30 1   
    18     5    31 1   
    19     6     7 1   
    20     6    32 1   
    21     6    33 1   
    22     6    34 1   
    23     7     8 1   
    24     7    22 1   
    25     7    35 1   
    26     8     9 1   
    27     8    36 1   
    28     8    37 1   
    29     9    10 1   
    30     9    38 1   
    31    10    11 2   
    32    10    12 1   
    33    12    13 ar  
    34    12    16 ar  
    35    13    14 ar  
    36    13    39 1   
    37    14    40 1   
    38    15    16 ar  
    39    15    17 1   
    40    16    41 1   
    41    17    18 1   
    42    17    42 1   
    43    18    19 2   
    44    18    20 1   
    45    20    43 1   
    46    20    44 1   
    47    23    24 1   
    48    24    45 1   
    49    24    46 1   
@<TRIPOS>SUBSTRUCTURE
     1 5QW         1 TEMP              0 ****  ****    0 ROOT
