@<TRIPOS>MOLECULE
5QX
   22    23     1     0     0
SMALL
bcc


@<TRIPOS>ATOM
      1 O            0.0000     0.0000     0.0000 o          1 5QX      -0.668500
      2 C            1.2130     0.0000     0.0000 c          1 5QX       0.607500
      3 CA           1.9580     0.0000     1.3110 c3         1 5QX       0.082800
      4 N            3.2510    -0.6760     1.1270 nu         1 5QX      -0.399600
      5 CAJ          3.9760    -0.3990    -0.0400 ca         1 5QX      -0.008400
      6 CAE          5.3580    -0.4650    -0.0550 ca         1 5QX      -0.119000
      7 CAC          6.0460    -0.1830    -1.2230 ca         1 5QX      -0.091000
      8 CAD          5.3550     0.1660    -2.3700 ca         1 5QX      -0.103000
      9 CAF          3.9740     0.2330    -2.3610 ca         1 5QX      -0.114000
     10 CAK          3.2770    -0.0520    -1.1980 ca         1 5QX      -0.111400
     11 NAL          1.8780    -0.0070    -1.1710 n          1 5QX       0.029000
     12 CAA          1.1300     0.0400    -2.4300 c3         1 5QX       0.053300
     13 H1           2.1380     1.0250     1.6110 h1         1 5QX       0.038700
     14 H2           1.3770    -0.5470     2.0440 h1         1 5QX       0.038700
     15 H3           3.8300    -0.5120     1.9260 hn         1 5QX       0.260800
     16 H4           5.9000    -0.7380     0.8420 ha         1 5QX       0.111000
     17 H5           7.1280    -0.2330    -1.2390 ha         1 5QX       0.104000
     18 H6           5.8990     0.3850    -3.2800 ha         1 5QX       0.105000
     19 H7           3.4380     0.5060    -3.2620 ha         1 5QX       0.116000
     20 H8           1.2740     1.0060    -2.9000 h1         1 5QX       0.023367
     21 H9           0.0760    -0.1100    -2.2290 h1         1 5QX       0.023367
     22 H10          1.4860    -0.7400    -3.0910 h1         1 5QX       0.023367
@<TRIPOS>BOND
     1     1     2 2   
     2     2     3 1   
     3     2    11 1   
     4     3     4 1   
     5     3    13 1   
     6     3    14 1   
     7     4     5 1   
     8     4    15 1   
     9     5     6 ar  
    10     5    10 ar  
    11     6     7 ar  
    12     6    16 1   
    13     7     8 ar  
    14     7    17 1   
    15     8     9 ar  
    16     8    18 1   
    17     9    10 ar  
    18     9    19 1   
    19    10    11 1   
    20    11    12 1   
    21    12    20 1   
    22    12    21 1   
    23    12    22 1   
@<TRIPOS>SUBSTRUCTURE
     1 5QX         1 TEMP              0 ****  ****    0 ROOT
