@<TRIPOS>MOLECULE
molecule
   22    23     1     0     0
SMALL
bcc


@<TRIPOS>ATOM
      1 O            0.0000     0.0000     0.0000 o          1 5QX      -0.628500
      2 C            1.2130     0.0000     0.0000 c          1 5QX       0.701500
      3 CA           1.9580     0.0000     1.3110 c3         1 5QX       0.113800
      4 N            3.2510    -0.6760     1.1270 nu         1 5QX      -0.709600
      5 CAJ          3.9760    -0.3990    -0.0400 ca         1 5QX       0.087600
      6 CAE          5.3580    -0.4650    -0.0550 ca         1 5QX      -0.150000
      7 CAC          6.0460    -0.1830    -1.2230 ca         1 5QX      -0.122000
      8 CAD          5.3550     0.1660    -2.3700 ca         1 5QX      -0.132000
      9 CAF          3.9740     0.2330    -2.3610 ca         1 5QX      -0.140000
     10 CAK          3.2770    -0.0520    -1.1980 ca         1 5QX       0.027600
     11 NAL          1.8780    -0.0070    -1.1710 n          1 5QX      -0.369000
     12 CAA          1.1300     0.0400    -2.4300 c3         1 5QX       0.089300
     13 H1           2.1380     1.0250     1.6110 h1         1 5QX       0.073700
     14 H2           1.3770    -0.5470     2.0440 h1         1 5QX       0.073700
     15 H3           3.8300    -0.5120     1.9260 hn         1 5QX       0.382800
     16 H4           5.9000    -0.7380     0.8420 ha         1 5QX       0.137000
     17 H5           7.1280    -0.2330    -1.2390 ha         1 5QX       0.134000
     18 H6           5.8990     0.3850    -3.2800 ha         1 5QX       0.133000
     19 H7           3.4380     0.5060    -3.2620 ha         1 5QX       0.138000
     20 H8           1.2740     1.0060    -2.9000 h1         1 5QX       0.053033
     21 H9           0.0760    -0.1100    -2.2290 h1         1 5QX       0.053033
     22 H10          1.4860    -0.7400    -3.0910 h1         1 5QX       0.053033
@<TRIPOS>BOND
     1     1     2 2
     2     2     3 1
     3     2    11 1
     4    12    11 1
     5     3     4 1
     6    11    10 1
     7    10     9 ar
     8    10     5 ar
     9     4     5 1
    10     9     8 ar
    11     5     6 ar
    12     8     7 ar
    13     6     7 ar
    14     3    13 1
    15     3    14 1
    16     4    15 1
    17     6    16 1
    18     7    17 1
    19     8    18 1
    20     9    19 1
    21    12    20 1
    22    12    21 1
    23    12    22 1
@<TRIPOS>SUBSTRUCTURE
     1 5QX         1 TEMP              0 ****  ****    0 ROOT
