@<TRIPOS>MOLECULE
5QY
   22    23     1     0     0
SMALL
bcc


@<TRIPOS>ATOM
      1 O            0.0000     0.0000     0.0000 o          1 5QY      -0.660500
      2 C            1.2120     0.0000     0.0000 c          1 5QY       0.567500
      3 NAG          1.8780     0.0000     1.1710 ns         1 5QY      -0.015100
      4 CAJ          3.2770     0.0510     1.1970 ca         1 5QY      -0.122400
      5 CAE          3.9740    -0.2400     2.3580 ca         1 5QY      -0.124000
      6 CAC          5.3560    -0.1790     2.3650 ca         1 5QY      -0.081000
      7 CAD          6.0460     0.1720     1.2190 ca         1 5QY      -0.112000
      8 CAF          5.3570     0.4620     0.0540 ca         1 5QY      -0.065000
      9 CAK          3.9760     0.4000     0.0400 ca         1 5QY      -0.023400
     10 N            3.2510     0.6770    -1.1270 nu         1 5QY      -0.422600
     11 CA           1.9580    -0.0050    -1.3110 c3         1 5QY       0.060500
     12 CB           2.1940    -1.4500    -1.7580 c3         1 5QY       0.012900
     13 H1           1.3670    -0.0340     2.0310 hn         1 5QY       0.180500
     14 H2           3.4380    -0.5150     3.2590 ha         1 5QY       0.110000
     15 H3           5.9010    -0.4040     3.2740 ha         1 5QY       0.105000
     16 H4           7.1280     0.2170     1.2330 ha         1 5QY       0.107000
     17 H5           5.8980     0.7360    -0.8440 ha         1 5QY       0.115000
     18 H6           3.1220     1.6660    -1.2130 hn         1 5QY       0.261800
     19 H7           1.3760     0.5200    -2.0590 h1         1 5QY       0.061700
     20 H8           3.0320    -1.4830    -2.4430 hc         1 5QY       0.014367
     21 H9           2.4100    -2.0650    -0.8930 hc         1 5QY       0.014367
     22 H10          1.3070    -1.8240    -2.2540 hc         1 5QY       0.014367
@<TRIPOS>BOND
     1     1     2 2   
     2     2     3 1   
     3     2    11 1   
     4     3     4 1   
     5     3    13 1   
     6     4     5 ar  
     7     4     9 ar  
     8     5     6 ar  
     9     5    14 1   
    10     6     7 ar  
    11     6    15 1   
    12     7     8 ar  
    13     7    16 1   
    14     8     9 ar  
    15     8    17 1   
    16     9    10 1   
    17    10    11 1   
    18    10    18 1   
    19    11    12 1   
    20    11    19 1   
    21    12    20 1   
    22    12    21 1   
    23    12    22 1   
@<TRIPOS>SUBSTRUCTURE
     1 5QY         1 TEMP              0 ****  ****    0 ROOT
