@<TRIPOS>MOLECULE
molecule
   26    26     1     0     0
SMALL
bcc


@<TRIPOS>ATOM
      1 C10          0.0000     0.0000     0.0000 ca         1 5R0      -0.159500
      2 C1          -0.7280    -0.0030     3.6830 c          1 5R0       0.882200
      3 C01          1.7610     1.2510    -2.1080 c3         1 5R0      -0.077433
      4 C02          2.1340     0.0010    -1.3080 c3         1 5R0      -0.015700
      5 C03          1.7610    -1.2480    -2.1100 c3         1 5R0      -0.077433
      6 C04          3.6390     0.0010    -1.0330 c3         1 5R0      -0.077433
      7 C05          1.3840     0.0000     0.0000 ca         1 5R0      -0.105300
      8 C06          2.0820     0.0000     1.1940 ca         1 5R0      -0.159500
      9 C07          1.4030    -0.0020     2.3940 ca         1 5R0      -0.101000
     10 C08          0.0060    -0.0020     2.4020 ca         1 5R0      -0.103600
     11 C09         -0.6920    -0.0010     1.1930 ca         1 5R0      -0.101000
     12 O12         -0.1180    -0.0040     4.7340 o          1 5R0      -0.839800
     13 H1          -0.5410     0.0010    -0.9390 ha         1 5R0       0.107000
     14 H3           2.4070     1.3300    -2.9750 hc         1 5R0       0.029256
     15 H4           0.7300     1.1790    -2.4320 hc         1 5R0       0.029256
     16 H5           1.8840     2.1280    -1.4850 hc         1 5R0       0.029256
     17 H6           2.4060    -1.3270    -2.9760 hc         1 5R0       0.029256
     18 H7           0.7300    -1.1750    -2.4330 hc         1 5R0       0.029256
     19 H8           1.8830    -2.1260    -1.4870 hc         1 5R0       0.029256
     20 H9           3.9030    -0.8840    -0.4660 hc         1 5R0       0.029256
     21 H10          3.9030     0.8850    -0.4650 hc         1 5R0       0.029256
     22 H11          4.1780     0.0010    -1.9730 hc         1 5R0       0.029256
     23 H12          3.1660     0.0000     1.1860 ha         1 5R0       0.107000
     24 H13          1.9510    -0.0020     3.3280 ha         1 5R0       0.147500
     25 H14         -1.7750    -0.0010     1.1920 ha         1 5R0       0.147500
     26 O2          -2.0750    -0.0040     3.6880 o          1 5R0      -0.839800
@<TRIPOS>BOND
     1     3     4 1
     2     6     4 1
     3     4     5 1
     4     4     7 1
     5     7     1 ar
     6     7     8 ar
     7     1    11 ar
     8     8     9 ar
     9    11    10 ar
    10     9    10 ar
    11    10     2 1
    12     2    12 1
    13     1    13 1
    14     3    14 1
    15     3    15 1
    16     3    16 1
    17     5    17 1
    18     5    18 1
    19     5    19 1
    20     6    20 1
    21     6    21 1
    22     6    22 1
    23     8    23 1
    24     9    24 1
    25    11    25 1
    26     2    26 1
@<TRIPOS>SUBSTRUCTURE
     1 5R0         1 TEMP              0 ****  ****    0 ROOT
