@<TRIPOS>MOLECULE
molecule
   50    52     1     0     0
SMALL
bcc


@<TRIPOS>ATOM
      1 C01          0.0000     0.0000     0.0000 c3         1 5R1       0.121700
      2 O02          1.4290     0.0000     0.0000 os         1 5R1      -0.260900
      3 C03          2.0440     0.0000     1.2090 ca         1 5R1       0.141100
      4 C04          1.2920    -0.0010     2.3720 ca         1 5R1      -0.212000
      5 C05          1.9310    -0.0030     3.6110 cp         1 5R1      -0.153500
      6 C06          1.1290    -0.0050     4.8550 cp         1 5R1       0.390500
      7 N07          0.0770    -0.8050     4.9680 nb         1 5R1      -0.647000
      8 C08         -0.6400    -0.8050     6.0870 cp         1 5R1       0.333500
      9 C09         -1.8160    -1.6990     6.2150 cp         1 5R1      -0.060500
     10 C10         -2.6300    -1.6250     7.3440 ca         1 5R1      -0.229000
     11 C11         -3.7270    -2.4600     7.4610 ca         1 5R1       0.149600
     12 O12         -4.5220    -2.3880     8.5630 os         1 5R1      -0.318400
     13 C13         -4.1650    -1.4270     9.5590 c3         1 5R1       0.125200
     14 C14         -4.0170    -3.3730     6.4540 ca         1 5R1       0.045100
     15 O15         -5.0970    -4.1930     6.5700 os         1 5R1      -0.326900
     16 C16         -6.3360    -3.7130     6.0460 c3         1 5R1       0.134700
     17 C17         -3.2070    -3.4480     5.3250 ca         1 5R1       0.149600
     18 O18         -3.4930    -4.3420     4.3410 os         1 5R1      -0.318400
     19 C19         -2.6170    -4.3650     3.2120 c3         1 5R1       0.125200
     20 C20         -2.1120    -2.6100     5.2020 ca         1 5R1      -0.229000
     21 C21         -0.2870     0.0370     7.1430 ca         1 5R1       0.300900
     22 N22          0.7590     0.8350     7.0350 nb         1 5R1      -0.692000
     23 C23          1.4830     0.8360     5.9230 ca         1 5R1       0.563900
     24 N24          2.5860     1.6700     5.8130 nv         1 5R1      -1.062500
     25 C25          3.3270    -0.0030     3.6790 ca         1 5R1      -0.156000
     26 C26          4.0730    -0.0020     2.5370 ca         1 5R1      -0.079000
     27 C27          3.4450    -0.0060     1.2870 ca         1 5R1      -0.104600
     28 C28          4.2520    -0.0110     0.0550 c          1 5R1       0.880200
     29 O29          3.7060    -0.0100    -1.0300 o          1 5R1      -0.826300
     30 O30          5.5980    -0.0160     0.1320 o          1 5R1      -0.826300
     31 H011        -0.3610    -0.8650     0.5430 h1         1 5R1       0.025700
     32 H012        -0.3610     0.9030     0.4780 h1         1 5R1       0.025700
     33 H013        -0.3610    -0.0370    -1.0210 h1         1 5R1       0.025700
     34 H04          0.2130     0.0750     2.3200 ha         1 5R1       0.125000
     35 H25          3.8190    -0.0020     4.6450 ha         1 5R1       0.113000
     36 H21         -0.8750     0.0370     8.0530 h4         1 5R1       0.018100
     37 H10         -2.4300    -0.8830     8.1080 ha         1 5R1       0.155500
     38 H20         -1.4810    -2.6680     4.3240 ha         1 5R1       0.155500
     39 H131        -3.1680    -1.6410     9.9260 h1         1 5R1       0.043533
     40 H132        -4.1840    -0.4340     9.1260 h1         1 5R1       0.043533
     41 H133        -4.8710    -1.4770    10.3790 h1         1 5R1       0.043533
     42 H161        -6.1460    -3.0980     5.1740 h1         1 5R1       0.030700
     43 H162        -6.8430    -3.1220     6.8000 h1         1 5R1       0.030700
     44 H163        -6.9600    -4.5530     5.7660 h1         1 5R1       0.030700
     45 H191        -1.6120    -4.5970     3.5400 h1         1 5R1       0.043533
     46 H192        -2.9520    -5.1200     2.5110 h1         1 5R1       0.043533
     47 H193        -2.6250    -3.3950     2.7290 h1         1 5R1       0.043533
     48 H241         2.5250     2.5110     5.2730 hn         1 5R1       0.439300
     49 H242         3.4230     1.4620     6.3210 hn         1 5R1       0.439300
     50 H26          5.1540    -0.0050     2.5980 ha         1 5R1       0.163000
@<TRIPOS>BOND
     1     1     2 1   
     2     2     3 1   
     3     3     4 ar  
     4     3    27 ar  
     5     4     5 ar  
     6     5     6 1   
     7     5    25 ar  
     8     6     7 ar  
     9     6    23 ar  
    10     7     8 ar  
    11     8     9 1   
    12     8    21 ar  
    13     9    10 ar  
    14     9    20 ar  
    15    10    11 ar  
    16    11    12 1   
    17    11    14 ar  
    18    12    13 1   
    19    14    15 1   
    20    14    17 ar  
    21    15    16 1   
    22    17    18 1   
    23    17    20 ar  
    24    18    19 1   
    25    21    22 ar  
    26    22    23 ar  
    27    23    24 1   
    28    25    26 ar  
    29    26    27 ar  
    30    27    28 1   
    31    28    29 1   
    32    28    30 1   
    33     1    31 1   
    34     1    32 1   
    35     1    33 1   
    36     4    34 1   
    37    25    35 1   
    38    21    36 1   
    39    10    37 1   
    40    20    38 1   
    41    13    39 1   
    42    13    40 1   
    43    13    41 1   
    44    16    42 1   
    45    16    43 1   
    46    16    44 1   
    47    19    45 1   
    48    19    46 1   
    49    19    47 1   
    50    24    48 1   
    51    24    49 1   
    52    26    50 1   
@<TRIPOS>SUBSTRUCTURE
     1 5R1         1 TEMP              0 ****  ****    0 ROOT
