@<TRIPOS>MOLECULE
5R8
   41    42     1     0     0
SMALL
bcc


@<TRIPOS>ATOM
      1 C6           0.0000     0.0000     0.0000 c3         1 5R8       0.147800
      2 C1           2.0070     1.1480    -0.7500 c3         1 5R8       0.187100
      3 N2           1.4810     0.0000     0.0000 n3         1 5R8      -0.531600
      4 C7          -0.5500    -1.3340     0.2270 c3         1 5R8       0.126800
      5 N8          -0.1380    -1.8930     1.5350 n3         1 5R8      -0.525600
      6 C9           1.1950    -2.4320     1.4410 c3         1 5R8       0.147800
      7 C10          2.2770    -1.4200     1.8760 c3         1 5R8      -0.010400
      8 C11          1.9720     0.0000     1.3550 c3         1 5R8       0.146800
      9 C22         -1.0890    -2.9150     1.9930 c3         1 5R8       0.196100
     10 C23         -2.4210    -2.2720     2.2810 ca         1 5R8      -0.020300
     11 C26         -3.3690    -2.1680     1.2810 ca         1 5R8      -0.073500
     12 C27         -4.5900    -1.5770     1.5450 ca         1 5R8      -0.067000
     13 C28         -4.8620    -1.0890     2.8100 ca         1 5R8      -0.223300
     14 C29         -3.9130    -1.1930     3.8100 ca         1 5R8      -0.067000
     15 C30         -2.6950    -1.7890     3.5470 ca         1 5R8      -0.073500
     16 C35         -6.1930    -0.4430     3.0980 c3         1 5R8       0.041100
     17 N36         -7.1440    -1.4650     3.5550 nz         1 5R8       0.072400
     18 H1          -0.3500     0.3650    -0.9580 h1         1 5R8       0.014700
     19 H2          -0.3500     0.6610     0.7830 h1         1 5R8       0.014700
     20 H3           1.6860     2.0680    -0.2740 h1         1 5R8       0.003367
     21 H4           1.6340     1.1180    -1.7660 h1         1 5R8       0.003367
     22 H5           3.0900     1.1070    -0.7610 h1         1 5R8       0.003367
     23 H7          -0.2050    -1.9930    -0.5600 h1         1 5R8       0.018200
     24 H8          -1.6310    -1.2760     0.1960 h1         1 5R8       0.018200
     25 H10          1.2620    -3.3080     2.0740 h1         1 5R8       0.016700
     26 H11          1.3820    -2.7210     0.4130 h1         1 5R8       0.016700
     27 H12          3.2350    -1.7400     1.4860 hc         1 5R8       0.017200
     28 H13          2.3200    -1.3960     2.9590 hc         1 5R8       0.017200
     29 H14          2.8810     0.5880     1.3970 h1         1 5R8       0.014200
     30 H15          1.2260     0.4540     1.9960 h1         1 5R8       0.014200
     31 H16         -0.7110    -3.3820     2.8940 h1         1 5R8       0.023700
     32 H17         -1.2100    -3.6660     1.2210 h1         1 5R8       0.023700
     33 H18         -3.1550    -2.5510     0.2910 ha         1 5R8       0.132000
     34 H19         -5.3340    -1.4960     0.7610 ha         1 5R8       0.107000
     35 H20         -4.1270    -0.8120     4.8010 ha         1 5R8       0.107000
     36 H21         -1.9510    -1.8710     4.3310 ha         1 5R8       0.132000
     37 H22         -6.0710     0.3070     3.8700 hx         1 5R8       0.081200
     38 H23         -6.5710     0.0240     2.1970 hx         1 5R8       0.081200
     39 H24         -8.0270    -1.0350     3.7510 hn         1 5R8       0.222467
     40 H25         -6.7940    -1.9000     4.3860 hn         1 5R8       0.222467
     41 H363        -7.2610    -2.1560     2.8400 hn         1 5R8       0.222467
@<TRIPOS>BOND
     1     1     3 1   
     2     1     4 1   
     3     1    18 1   
     4     1    19 1   
     5     2     3 1   
     6     2    20 1   
     7     2    21 1   
     8     2    22 1   
     9     3     8 1   
    10     4     5 1   
    11     4    23 1   
    12     4    24 1   
    13     5     6 1   
    14     5     9 1   
    15     6     7 1   
    16     6    25 1   
    17     6    26 1   
    18     7     8 1   
    19     7    27 1   
    20     7    28 1   
    21     8    29 1   
    22     8    30 1   
    23     9    10 1   
    24     9    31 1   
    25     9    32 1   
    26    10    11 ar  
    27    10    15 ar  
    28    11    12 ar  
    29    11    33 1   
    30    12    13 ar  
    31    12    34 1   
    32    13    14 ar  
    33    13    16 1   
    34    14    15 ar  
    35    14    35 1   
    36    15    36 1   
    37    16    17 1   
    38    16    37 1   
    39    16    38 1   
    40    17    39 1   
    41    17    40 1   
    42    17    41 1   
@<TRIPOS>SUBSTRUCTURE
     1 5R8         1 TEMP              0 ****  ****    0 ROOT
