@<TRIPOS>MOLECULE
molecule
   40    42     1     0     0
SMALL
bcc


@<TRIPOS>ATOM
      1 N7           0.0000     0.0000     0.0000 n3         1 5R9      -0.732600
      2 C5           2.0770     0.0000     1.4200 c3         1 5R9       0.152800
      3 C6           1.4820     0.0000     0.0000 c3         1 5R9       0.182800
      4 C2          -0.8760    -0.0670     2.2610 c3         1 5R9      -0.079400
      5 C1          -0.5940    -0.8770     0.9790 c3         1 5R9       0.174800
      6 C3           0.3340     0.1340     3.0560 c3         1 5R9       0.169800
      7 N4           1.3730     0.8850     2.3150 n3         1 5R9      -0.703600
      8 C18         -0.5260    -0.2780    -1.3430 c3         1 5R9       0.158100
      9 C22          2.3020     1.5490     3.2390 c3         1 5R9       0.208100
     10 C23          3.1880     2.4940     2.4680 ca         1 5R9      -0.082300
     11 C26          4.3930     2.0320     1.9420 ca         1 5R9      -0.119000
     12 C27          5.2160     2.8600     1.2410 ca         1 5R9      -0.165300
     13 C28          4.8490     4.2020     1.0410 ca         1 5R9       0.417600
     14 C29          3.6240     4.6680     1.5760 ca         1 5R9      -0.156300
     15 C30          2.7970     3.7860     2.2900 ca         1 5R9      -0.081000
     16 N34          5.6370     5.0370     0.3560 nb         1 5R9      -0.682000
     17 C35          5.3000     6.2900     0.1660 ca         1 5R9       0.431200
     18 C36          4.1090     6.8120     0.6650 ca         1 5R9      -0.259300
     19 C37          3.2580     6.0140     1.3740 ca         1 5R9      -0.075000
     20 H2           2.0300    -1.0070     1.8170 h1         1 5R9       0.035700
     21 H3           3.1120     0.3130     1.3640 h1         1 5R9       0.035700
     22 H4           1.8300    -0.8830    -0.5230 h1         1 5R9       0.035200
     23 H5           1.8300     0.8830    -0.5230 h1         1 5R9       0.035200
     24 H6          -1.6050    -0.5990     2.8600 hc         1 5R9       0.054700
     25 H7          -1.2780     0.9000     1.9840 hc         1 5R9       0.054700
     26 H8           0.0910    -1.6850     1.2050 h1         1 5R9       0.029200
     27 H9          -1.5220    -1.2770     0.5920 h1         1 5R9       0.029200
     28 H10          0.7330    -0.8340     3.3350 h1         1 5R9       0.027200
     29 H11          0.0760     0.6850     3.9530 h1         1 5R9       0.027200
     30 H13         -0.0390     0.3700    -2.0620 h1         1 5R9       0.029367
     31 H14         -0.3330    -1.3120    -1.6000 h1         1 5R9       0.029367
     32 H15         -1.5940    -0.0950    -1.3570 h1         1 5R9       0.029367
     33 H16          2.9140     0.8040     3.7340 h1         1 5R9       0.038200
     34 H17          1.7400     2.1040     3.9800 h1         1 5R9       0.038200
     35 H18          4.6830     1.0000     2.1000 ha         1 5R9       0.131000
     36 H19          6.1490     2.4850     0.8390 ha         1 5R9       0.148000
     37 H20          1.9150     4.1590     2.7960 ha         1 5R9       0.139000
     38 H21          5.9650     6.9360    -0.3950 h4         1 5R9       0.021100
     39 H22          3.8580     7.8520     0.4910 ha         1 5R9       0.136000
     40 H23          2.3280     6.4040     1.7700 ha         1 5R9       0.140000
@<TRIPOS>BOND
     1     4     6 1   
     2     4     5 1   
     3     6     7 1   
     4     5     1 1   
     5     9     7 1   
     6     9    10 1   
     7     7     2 1   
     8     8     1 1   
     9     2     3 1   
    10     1     3 1   
    11    10    15 ar  
    12    10    11 ar  
    13    15    14 ar  
    14    11    12 ar  
    15    14    19 ar  
    16    14    13 ar  
    17    19    18 ar  
    18    12    13 ar  
    19    13    16 ar  
    20    18    17 ar  
    21    16    17 ar  
    22     2    20 1   
    23     2    21 1   
    24     3    22 1   
    25     3    23 1   
    26     4    24 1   
    27     4    25 1   
    28     5    26 1   
    29     5    27 1   
    30     6    28 1   
    31     6    29 1   
    32     8    30 1   
    33     8    31 1   
    34     8    32 1   
    35     9    33 1   
    36     9    34 1   
    37    11    35 1   
    38    12    36 1   
    39    15    37 1   
    40    17    38 1   
    41    18    39 1   
    42    19    40 1   
@<TRIPOS>SUBSTRUCTURE
     1 5R9         1 TEMP              0 ****  ****    0 ROOT
