@<TRIPOS>MOLECULE
5RA
   69    74     1     0     0
SMALL
bcc


@<TRIPOS>ATOM
      1 C1           0.0000     0.0000     0.0000 c3         1 5RA      -0.181000
      2 C51          4.1570   -11.2650     0.8920 c3         1 5RA      -0.311000
      3 C6           1.9850     0.0000     1.3460 c3         1 5RA      -0.403000
      4 C8           4.2080     0.6930     0.2940 c3         1 5RA      -0.183000
      5 C10          3.3540    -0.9350    -1.2370 c3         1 5RA      -0.240000
      6 N2           1.4690     0.0000     0.0000 n3         1 5RA       0.314000
      7 C7           3.2530     0.8680     1.4940 c3         1 5RA      -0.045000
      8 N9           4.3120    -0.6780    -0.1370 n3         1 5RA       0.007000
      9 C11          1.9990    -1.1660    -0.7440 c3         1 5RA      -0.570000
     10 C22          5.6850    -0.9970    -0.5500 c3         1 5RA      -0.052000
     11 C23          5.8160    -2.4840    -0.7580 ca         1 5RA      -0.085000
     12 C26          5.5600    -3.0270    -1.9990 ca         1 5RA      -0.070000
     13 C27          5.6800    -4.4040    -2.1960 ca         1 5RA       0.036000
     14 C28          6.0610    -5.2280    -1.1220 cp         1 5RA       0.015000
     15 C29          6.3140    -4.6600     0.1240 ca         1 5RA      -0.098000
     16 C30          6.1950    -3.2960     0.2980 ca         1 5RA      -0.059000
     17 C34          6.1910    -6.6910    -1.3140 cq         1 5RA      -0.065000
     18 C35          7.3430    -7.3530    -0.8920 ca         1 5RA      -0.092500
     19 C36          7.4590    -8.7160    -1.0730 ca         1 5RA      -0.084500
     20 C37          6.4340    -9.4260    -1.6740 ca         1 5RA      -0.050000
     21 C38          5.2890    -8.7750    -2.0950 ca         1 5RA      -0.084500
     22 C39          5.1590    -7.4140    -1.9130 ca         1 5RA      -0.092500
     23 C44          5.4150    -4.9740    -3.4830 c1         1 5RA      -0.090000
     24 N45          5.1860    -5.4200    -4.5020 n1         1 5RA      -0.060000
     25 C46          6.5680   -10.9140    -1.8700 c3         1 5RA      -0.443000
     26 N47          6.0330   -11.6130    -0.6940 nx         1 5RA       0.073000
     27 C50          4.6100   -11.4090    -0.5720 c3         1 5RA      -0.258000
     28 N52          4.8290   -12.2270     1.7970 n3         1 5RA       0.013000
     29 C53          4.9570   -13.5600     1.2580 c3         1 5RA      -0.333000
     30 C54          6.3310   -13.6830     0.5680 DU         1 5RA       0.028000
     31 C55          6.3330   -13.0620    -0.7550 c3         1 5RA      -0.188000
     32 C66          4.1810   -12.2520     3.1140 c3         1 5RA      -0.109000
     33 H1          -0.3610     0.9330     0.4160 h1         1 5RA       0.063000
     34 H2          -0.3610    -0.8270     0.6000 h1         1 5RA       0.063000
     35 H3          -0.3610    -0.1060    -1.0160 h1         1 5RA       0.063000
     36 H4           3.3830   -10.5090     0.9430 h1         1 5RA       0.153000
     37 H5           5.0030   -10.9460     1.4880 h1         1 5RA       0.153000
     38 H6           1.2990    -0.5470     1.9810 h1         1 5RA       0.154500
     39 H7           2.9460    -0.5010     1.3490 h1         1 5RA       0.154500
     40 H8           5.1770     0.3820     0.6650 h1         1 5RA       0.079000
     41 H9           4.3110     1.6470    -0.2090 h1         1 5RA       0.079000
     42 H10          3.1210    -1.9930    -1.2540 h1         1 5RA       0.124000
     43 H11          3.8210    -0.6600    -2.1750 h1         1 5RA       0.124000
     44 H13          3.0770     1.8240     1.0160 hc         1 5RA       0.059000
     45 H14          3.4410     1.0290     2.5490 hc         1 5RA       0.059000
     46 H16          1.3410    -1.3120    -1.5920 h1         1 5RA       0.130000
     47 H17          1.6770    -0.2920    -0.1920 h1         1 5RA       0.130000
     48 H18          5.9910    -0.3210    -1.3390 h1         1 5RA       0.059500
     49 H19          6.3520    -0.8870     0.2970 h1         1 5RA       0.059500
     50 H20          5.2670    -2.3860    -2.8210 ha         1 5RA       0.115000
     51 H21          6.6080    -5.2890     0.9560 ha         1 5RA       0.116000
     52 H22          6.3970    -2.8610     1.2700 ha         1 5RA       0.109000
     53 H23          8.1460    -6.7980    -0.4220 ha         1 5RA       0.107500
     54 H24          8.3540    -9.2320    -0.7460 ha         1 5RA       0.107000
     55 H25          4.4890    -9.3350    -2.5640 ha         1 5RA       0.107000
     56 H26          4.2600    -6.9050    -2.2390 ha         1 5RA       0.107500
     57 H27          7.5060   -11.2550    -1.4480 hx         1 5RA       0.053000
     58 H28          5.7440   -11.4210    -1.3820 DU         1 5RA       0.293000
     59 H30          3.7510   -11.2680    -1.2170 hx         1 5RA       0.126000
     60 H31          5.0030   -12.4080    -0.7170 hx         1 5RA       0.126000
     61 H33          4.0770   -14.1300     1.5300 h1         1 5RA       0.139000
     62 H34          5.8310   -14.0280     1.6940 DU         1 5RA       0.085000
     63 H35          6.6760   -14.7060     0.6630 ha         1 5RA       0.069000
     64 H36          7.0310   -13.0250     1.0670 ha         1 5RA       0.069000
     65 H37          6.0520   -13.4340    -1.7330 hx         1 5RA       0.097000
     66 H38          7.3990   -13.2020    -0.6170 hx         1 5RA       0.097000
     67 H39          4.8920   -12.5850     3.8610 h1         1 5RA       0.045667
     68 H40          3.8330   -11.2580     3.3650 h1         1 5RA       0.045667
     69 H41          3.3390   -12.9340     3.0900 h1         1 5RA       0.045667
@<TRIPOS>BOND
     1     1     6 1   
     2     1    33 1   
     3     1    34 1   
     4     1    35 1   
     5     2    27 1   
     6     2    28 1   
     7     2    36 1   
     8     2    37 1   
     9     3     6 1   
    10     3     7 1   
    11     3    38 1   
    12     3    39 1   
    13     4     7 1   
    14     4     8 1   
    15     4    40 1   
    16     4    41 1   
    17     5     8 1   
    18     5     9 1   
    19     5    42 1   
    20     5    43 1   
    21     6     9 1   
    22     7    44 1   
    23     7    45 1   
    24     8    10 1   
    25     9    46 1   
    26     9    47 1   
    27    10    11 1   
    28    10    48 1   
    29    10    49 1   
    30    11    12 1   
    31    11    16 1   
    32    12    13 1   
    33    12    50 1   
    34    13    14 1   
    35    13    23 1   
    36    14    15 1   
    37    14    17 1   
    38    15    16 1   
    39    15    51 1   
    40    16    52 1   
    41    17    18 1   
    42    17    22 1   
    43    18    19 1   
    44    18    53 1   
    45    19    20 1   
    46    19    54 1   
    47    20    21 1   
    48    20    25 1   
    49    21    22 1   
    50    21    55 1   
    51    22    56 1   
    52    23    24 1   
    53    25    26 1   
    54    25    57 1   
    55    25    58 1   
    56    26    27 1   
    57    26    31 1   
    58    26    58 1   
    59    27    59 1   
    60    27    60 1   
    61    28    29 1   
    62    28    32 1   
    63    29    30 1   
    64    29    61 1   
    65    29    62 1   
    66    30    31 1   
    67    30    62 1   
    68    30    63 1   
    69    30    64 1   
    70    31    65 1   
    71    31    66 1   
    72    32    67 1   
    73    32    68 1   
    74    32    69 1   
@<TRIPOS>SUBSTRUCTURE
     1 5RA         1 TEMP              0 ****  ****    0 ROOT
