@<TRIPOS>MOLECULE
5RC
   53    56     1     0     0
SMALL
bcc


@<TRIPOS>ATOM
      1 C18          0.0000     0.0000     0.0000 c3         1 5RC      -0.024300
      2 C16         -1.7100    -1.6880     0.4050 c          1 5RC       0.656700
      3 C15         -2.5690    -6.0700     3.4530 c3         1 5RC       0.053900
      4 C19          1.5300     0.0000     0.0000 c3         1 5RC      -0.087500
      5 C20          2.0400     0.0000     1.4420 c3         1 5RC      -0.040400
      6 C21          1.5300     1.2490     2.1640 c3         1 5RC      -0.008400
      7 F30         -8.7000    -7.6340     5.9460 f          1 5RC      -0.198300
      8 C22          0.0000     1.2490     2.1640 c3         1 5RC      -0.084400
      9 C23         -0.5100     1.2490     0.7210 c3         1 5RC       0.387600
     10 C11         -3.4130    -3.4710     0.8910 cc         1 5RC       0.032000
     11 C12         -2.1990    -2.8850     1.0970 cd         1 5RC      -0.155700
     12 N1          -6.7970    -6.3590     2.1730 na         1 5RC       0.538200
     13 C2          -5.8030    -5.5440     2.6540 cd         1 5RC       0.211500
     14 C3          -4.8710    -5.3910     1.6220 cc         1 5RC      -0.287800
     15 C4          -5.3350    -6.1290     0.5300 cc         1 5RC       0.516500
     16 N5          -6.4720    -6.7010     0.8550 nd         1 5RC      -0.710100
     17 C6          -7.8520    -6.6880     2.9760 cc         1 5RC      -0.078300
     18 C7          -7.8980    -6.1950     4.2380 cd         1 5RC      -0.361600
     19 C8          -6.8670    -5.3600     4.6910 cc         1 5RC       0.472200
     20 N9          -5.8600    -5.0650     3.9010 nd         1 5RC      -0.543000
     21 C10         -3.6220    -4.5920     1.6770 cc         1 5RC      -0.037800
     22 S13         -1.3100    -3.7850     2.3170 ss         1 5RC      -0.253800
     23 C14         -2.5870    -4.9000     2.5020 cd         1 5RC       0.075600
     24 N17         -0.4880    -1.1960     0.6910 ns         1 5RC      -0.269900
     25 F24         -0.0440     2.3910     0.0610 f          1 5RC      -0.193800
     26 O25         -2.4090    -1.1380    -0.4270 o          1 5RC      -0.588100
     27 F26         -1.9090     1.2480     0.7210 f          1 5RC      -0.193800
     28 N27          2.0190    -1.2000    -0.6930 nz         1 5RC       0.076400
     29 C28         -9.0500    -6.5410     5.1470 c3         1 5RC       0.660200
     30 F29        -10.1700    -6.8660     4.3760 f          1 5RC      -0.198300
     31 F31         -9.3470    -5.4430     5.9620 f          1 5RC      -0.198300
     32 C32         -1.9890    -7.2950     2.7430 c3         1 5RC       0.003900
     33 H1          -0.3590     0.0040    -1.0220 h1         1 5RC       0.089700
     34 H2          -3.5790    -6.2860     3.7780 hc         1 5RC       0.035700
     35 H3          -1.9570    -5.8270     4.3120 hc         1 5RC       0.035700
     36 H4           1.8890     0.8870    -0.5080 hx         1 5RC       0.113700
     37 H5           3.1230     0.0030     1.4400 hc         1 5RC       0.039200
     38 H6           1.6770    -0.8840     1.9520 hc         1 5RC       0.039200
     39 H7           1.8900     1.2460     3.1850 hc         1 5RC       0.050200
     40 H8           1.8900     2.1320     1.6510 hc         1 5RC       0.050200
     41 H9          -0.3600     0.3620     2.6720 hc         1 5RC       0.063700
     42 H10         -0.3590     2.1350     2.6720 hc         1 5RC       0.063700
     43 H11         -4.1420    -3.0970     0.1830 ha         1 5RC       0.146000
     44 H12         -4.8380    -6.2150    -0.4290 h4         1 5RC       0.019800
     45 H13         -8.6400    -7.3340     2.6100 h4         1 5RC       0.166000
     46 H14         -6.8970    -4.9630     5.6980 h4         1 5RC       0.009100
     47 H15          0.0990    -1.6680     1.3500 hn         1 5RC       0.195500
     48 H16          1.9230    -1.9950    -0.0920 hn         1 5RC       0.228800
     49 H17          1.4850    -1.3460    -1.5260 hn         1 5RC       0.228800
     50 H19         -2.1310    -7.1940     1.6740 hc         1 5RC       0.009367
     51 H20         -0.9310    -7.3710     2.9610 hc         1 5RC       0.009367
     52 H21         -2.4950    -8.1870     3.0920 hc         1 5RC       0.009367
     53 H273         2.9840    -1.0780    -0.9310 hn         1 5RC       0.228800
@<TRIPOS>BOND
     1     1     4 1   
     2     1     9 1   
     3     1    24 1   
     4     1    33 1   
     5     2    11 1   
     6     2    24 1   
     7     2    26 2   
     8     3    23 1   
     9     3    32 1   
    10     3    34 1   
    11     3    35 1   
    12     4     5 1   
    13     4    28 1   
    14     4    36 1   
    15     5     6 1   
    16     5    37 1   
    17     5    38 1   
    18     6     8 1   
    19     6    39 1   
    20     6    40 1   
    21     7    29 1   
    22     8     9 1   
    23     8    41 1   
    24     8    42 1   
    25     9    25 1   
    26     9    27 1   
    27    10    11 2   
    28    10    21 1   
    29    10    43 1   
    30    11    22 1   
    31    12    13 1   
    32    12    16 1   
    33    12    17 1   
    34    13    14 2   
    35    13    20 1   
    36    14    15 1   
    37    14    21 1   
    38    15    16 2   
    39    15    44 1   
    40    17    18 2   
    41    17    45 1   
    42    18    19 1   
    43    18    29 1   
    44    19    20 2   
    45    19    46 1   
    46    21    23 2   
    47    22    23 1   
    48    24    47 1   
    49    28    48 1   
    50    28    49 1   
    51    28    53 1   
    52    29    30 1   
    53    29    31 1   
    54    32    50 1   
    55    32    51 1   
    56    32    52 1   
@<TRIPOS>SUBSTRUCTURE
     1 5RC         1 TEMP              0 ****  ****    0 ROOT
