@<TRIPOS>MOLECULE
molecule
   53    56     1     0     0
SMALL
bcc


@<TRIPOS>ATOM
      1 C18          0.0000     0.0000     0.0000 c3         1 5RC       0.056700
      2 C16         -1.7100    -1.6880     0.4050 c          1 5RC       0.712700
      3 C15         -2.5690    -6.0700     3.4530 c3         1 5RC      -0.015100
      4 C19          1.5300     0.0000     0.0000 c3         1 5RC       0.089500
      5 C20          2.0400     0.0000     1.4420 c3         1 5RC      -0.108400
      6 C21          1.5300     1.2490     2.1640 c3         1 5RC      -0.073400
      7 F30         -8.7000    -7.6340     5.9460 f          1 5RC      -0.212633
      8 C22          0.0000     1.2490     2.1640 c3         1 5RC      -0.130400
      9 C23         -0.5100     1.2490     0.7210 c3         1 5RC       0.409600
     10 C11         -3.4130    -3.4710     0.8910 cc         1 5RC      -0.014000
     11 C12         -2.1990    -2.8850     1.0970 cd         1 5RC      -0.174700
     12 N1          -6.7970    -6.3590     2.1730 na         1 5RC       0.039200
     13 C2          -5.8030    -5.5440     2.6540 cd         1 5RC       0.420500
     14 C3          -4.8710    -5.3910     1.6220 cc         1 5RC      -0.266800
     15 C4          -5.3350    -6.1290     0.5300 cc         1 5RC       0.442500
     16 N5          -6.4720    -6.7010     0.8550 nd         1 5RC      -0.546100
     17 C6          -7.8520    -6.6880     2.9760 cd         1 5RC       0.087700
     18 C7          -7.8980    -6.1950     4.2380 cc         1 5RC      -0.378600
     19 C8          -6.8670    -5.3600     4.6910 cc         1 5RC       0.506200
     20 N9          -5.8600    -5.0650     3.9010 nd         1 5RC      -0.673000
     21 C10         -3.6220    -4.5920     1.6770 cc         1 5RC      -0.052800
     22 S13         -1.3100    -3.7850     2.3170 ss         1 5RC      -0.142800
     23 C14         -2.5870    -4.9000     2.5020 cd         1 5RC       0.031600
     24 N17         -0.4880    -1.1960     0.6910 ns         1 5RC      -0.621900
     25 F24         -0.0440     2.3910     0.0610 f          1 5RC      -0.204300
     26 O25         -2.4090    -1.1380    -0.4270 o          1 5RC      -0.557100
     27 F26         -1.9090     1.2480     0.7210 f          1 5RC      -0.204300
     28 N27          2.0190    -1.2000    -0.6930 nz         1 5RC      -0.806600
     29 C28         -9.0500    -6.5410     5.1470 c3         1 5RC       0.694200
     30 F29        -10.1700    -6.8660     4.3760 f          1 5RC      -0.212633
     31 F31         -9.3470    -5.4430     5.9620 f          1 5RC      -0.212633
     32 C32         -1.9890    -7.2950     2.7430 c3         1 5RC      -0.090100
     33 H1          -0.3590     0.0040    -1.0220 h1         1 5RC       0.115700
     34 H2          -3.5790    -6.2860     3.7780 hc         1 5RC       0.068700
     35 H3          -1.9570    -5.8270     4.3120 hc         1 5RC       0.068700
     36 H4           1.8890     0.8870    -0.5080 hx         1 5RC       0.137700
     37 H5           3.1230     0.0030     1.4400 hc         1 5RC       0.066200
     38 H6           1.6770    -0.8840     1.9520 hc         1 5RC       0.066200
     39 H7           1.8900     1.2460     3.1850 hc         1 5RC       0.083700
     40 H8           1.8900     2.1320     1.6510 hc         1 5RC       0.083700
     41 H9          -0.3600     0.3620     2.6720 hc         1 5RC       0.094200
     42 H10         -0.3590     2.1350     2.6720 hc         1 5RC       0.094200
     43 H11         -4.1420    -3.0970     0.1830 ha         1 5RC       0.182000
     44 H12         -4.8380    -6.2150    -0.4290 h4         1 5RC       0.071800
     45 H13         -8.6400    -7.3340     2.6100 h4         1 5RC       0.202000
     46 H14         -6.8970    -4.9630     5.6980 h4         1 5RC       0.057100
     47 H15          0.0990    -1.6680     1.3500 hn         1 5RC       0.315500
     48 H16          1.9230    -1.9950    -0.0920 hn         1 5RC       0.458133
     49 H17          1.4850    -1.3460    -1.5260 hn         1 5RC       0.458133
     50 H19         -2.1310    -7.1940     1.6740 hc         1 5RC       0.042700
     51 H20         -0.9310    -7.3710     2.9610 hc         1 5RC       0.042700
     52 H21         -2.4950    -8.1870     3.0920 hc         1 5RC       0.042700
     53 H273         2.9840    -1.0780    -0.9310 hn         1 5RC       0.458133
@<TRIPOS>BOND
     1     6     5 1
     2     6     8 1
     3     5     4 1
     4     4    28 1
     5     4     1 1
     6     8     9 1
     7    25     9 1
     8     9     1 1
     9     9    27 1
    10     1    24 1
    11     7    29 1
    12    24     2 1
    13    30    29 1
    14    29    31 1
    15    29    18 1
    16    19    18 1
    17    19    20 2
    18     2    26 2
    19     2    11 1
    20    18    17 2
    21    20    13 1
    22    10    11 2
    23    10    21 1
    24    11    22 1
    25    13    12 1
    26    13    14 2
    27    17    12 1
    28    12    16 1
    29    21    14 1
    30    21    23 2
    31    14    15 1
    32    22    23 1
    33    23     3 1
    34    16    15 2
    35     3    32 1
    36     1    33 1
    37     3    34 1
    38     3    35 1
    39     4    36 1
    40     5    37 1
    41     5    38 1
    42     6    39 1
    43     6    40 1
    44     8    41 1
    45     8    42 1
    46    10    43 1
    47    15    44 1
    48    17    45 1
    49    19    46 1
    50    24    47 1
    51    28    48 1
    52    28    49 1
    53    32    50 1
    54    32    51 1
    55    32    52 1
    56    53    28 1
@<TRIPOS>SUBSTRUCTURE
     1 5RC         1 TEMP              0 ****  ****    0 ROOT
