@<TRIPOS>MOLECULE
molecule
   35    35     1     0     0
SMALL
bcc


@<TRIPOS>ATOM
      1 C11          0.0000     0.0000     0.0000 c3         1 5RD       0.184100
      2 C13         -1.9580     1.4240     0.0010 c3         1 5RD       0.154800
      3 C14         -2.4290     2.8800     0.0020 c3         1 5RD      -0.082400
      4 C15         -3.9580     2.9200     0.0030 c3         1 5RD      -0.083400
      5 C16         -4.4300     4.3760     0.0040 c3         1 5RD      -0.091100
      6 C01          4.2720     0.0000     0.0000 ca         1 5RD      -0.326500
      7 C02          3.5810     0.0000     1.1980 ca         1 5RD      -0.040000
      8 C03          2.1980    -0.0000     1.1970 ca         1 5RD      -0.124500
      9 C04          1.5080     0.0000     0.0000 ca         1 5RD       0.019700
     10 C05          2.1980     0.0000    -1.1970 ca         1 5RD      -0.124500
     11 C06          3.5810     0.0070    -1.1960 ca         1 5RD      -0.040000
     12 O08          6.4360     0.5450    -1.2490 o          1 5RD      -0.518800
     13 O09          6.4360     0.5440     1.2510 o          1 5RD      -0.518800
     14 N10          6.5250    -1.5820    -0.0000 nz         1 5RD      -0.805500
     15 N12         -0.4900     1.3850     0.0020 n7         1 5RD      -0.812200
     16 H1          -0.3610    -0.5100    -0.8850 h1         1 5RD       0.054700
     17 H2          -0.3610    -0.5120     0.8840 h1         1 5RD       0.054700
     18 H3          -2.3330     0.9230     0.8850 h1         1 5RD       0.038700
     19 H4          -2.3330     0.9240    -0.8840 h1         1 5RD       0.038700
     20 H5          -2.0550     3.3810    -0.8820 hc         1 5RD       0.051700
     21 H6          -2.0540     3.3800     0.8870 hc         1 5RD       0.051700
     22 H7          -4.3330     2.4200    -0.8820 hc         1 5RD       0.042700
     23 H8          -4.3320     2.4190     0.8870 hc         1 5RD       0.042700
     24 H9          -4.1050     4.8620    -0.9090 hc         1 5RD       0.038700
     25 H10         -4.0070     4.8920     0.8570 hc         1 5RD       0.038700
     26 H11         -5.5110     4.4050     0.0630 hc         1 5RD       0.038700
     27 H12          4.1220     0.0470     2.1350 ha         1 5RD       0.164500
     28 H13          1.6570    -0.0280     2.1350 ha         1 5RD       0.166500
     29 H14          1.6570    -0.0470    -2.1340 ha         1 5RD       0.166500
     30 H15          3.9340     0.1090    -2.2150 ha         1 5RD       0.164500
     31 H16          7.5250    -1.6210    -0.0000 hn         1 5RD       0.491467
     32 H17          6.1730    -2.0190     0.8280 hn         1 5RD       0.491467
     33 H18         -0.1430     1.8630    -0.8060 hn         1 5RD       0.358800
     34 H103         6.1720    -2.0570    -0.8080 hn         1 5RD       0.491467
     35 S07          6.0340     0.0000     0.0000 sy         1 5RD       1.223200
@<TRIPOS>BOND
     1     2    15 1
     2     2     3 1
     3     1    15 1
     4     1     9 1
     5     4     3 1
     6     4     5 1
     7     9     8 ar
     8     9    10 ar
     9     8     7 ar
    10    10    11 ar
    11     7     6 ar
    12    11     6 ar
    13     6    35 1
    14    14    35 1
    15    12    35 2
    16    35    13 2
    17     1    16 1
    18     1    17 1
    19     2    18 1
    20     2    19 1
    21     3    20 1
    22     3    21 1
    23     4    22 1
    24     4    23 1
    25     5    24 1
    26     5    25 1
    27     5    26 1
    28     7    27 1
    29     8    28 1
    30    10    29 1
    31    11    30 1
    32    14    31 1
    33    14    32 1
    34    15    33 1
    35    34    14 1
@<TRIPOS>SUBSTRUCTURE
     1 5RD         1 TEMP              0 ****  ****    0 ROOT
