@<TRIPOS>MOLECULE
molecule
   56    58     1     0     0
SMALL
bcc


@<TRIPOS>ATOM
      1 C14          1.5070     0.0000     0.0000 c3         1 5RE       0.047700
      2 C10          3.2170     0.4920     1.6640 c          1 5RE       0.655100
      3 C01          5.2570     2.4510     3.3180 ca         1 5RE      -0.133000
      4 C02          6.5300     3.0030     3.3600 ca         1 5RE       0.106100
      5 O03          6.6860     4.3410     3.5460 oh         1 5RE      -0.520100
      6 C05          7.6410     2.1880     3.2120 ca         1 5RE      -0.150000
      7 C06          7.4790     0.8280     3.0240 ca         1 5RE      -0.112000
      8 C07          6.2110     0.2810     2.9830 ca         1 5RE      -0.119000
      9 C08          5.1000     1.0920     3.1300 ca         1 5RE      -0.054300
     10 C09          3.7180     0.4930     3.0860 c3         1 5RE      -0.106100
     11 O11          3.9130     0.9350     0.7760 o          1 5RE      -0.587100
     12 N12          1.9940     0.0000     1.3820 ns         1 5RE      -0.576900
     13 C15          2.0160    -1.2510    -0.7210 c3         1 5RE      -0.044100
     14 C16          3.5180    -1.1910    -0.8280 ca         1 5RE      -0.087300
     15 C17          4.1090    -0.5930    -1.9260 ca         1 5RE      -0.090500
     16 C18          5.4860    -0.5370    -2.0250 ca         1 5RE      -0.156500
     17 C19          6.2740    -1.0820    -1.0260 ca         1 5RE       0.140900
     18 F20          7.6200    -1.0280    -1.1220 f          1 5RE      -0.143900
     19 C21          5.6810    -1.6800     0.0730 ca         1 5RE      -0.156500
     20 C22          4.3040    -1.7300     0.1730 ca         1 5RE      -0.090500
     21 C23          0.0000     0.0000     0.0000 c          1 5RE       0.652100
     22 O24         -0.6070     0.0010     1.0490 o          1 5RE      -0.614100
     23 N25         -0.6740     0.0000    -1.1680 ns         1 5RE      -0.577900
     24 C27         -2.1390     0.0010    -1.1680 c3         1 5RE       0.162000
     25 C28         -2.6480     1.4390    -1.0430 c3         1 5RE      -0.106100
     26 C29         -2.6410    -0.6000    -2.4560 ca         1 5RE      -0.099300
     27 C30         -3.7370    -1.4420    -2.4440 ca         1 5RE      -0.122500
     28 C31         -4.1970    -1.9930    -3.6250 ca         1 5RE      -0.122500
     29 C32         -3.5620    -1.7010    -4.8180 ca         1 5RE      -0.125000
     30 C33         -2.4670    -0.8580    -4.8290 ca         1 5RE      -0.122500
     31 C34         -2.0100    -0.3030    -3.6500 ca         1 5RE      -0.122500
     32 H141         1.8680     0.8840    -0.5110 h1         1 5RE       0.097700
     33 H04          6.7830     4.5200     4.4670 ho         1 5RE       0.416000
     34 H051         8.6360     2.6160     3.2440 ha         1 5RE       0.139000
     35 H061         8.3470     0.1900     2.9090 ha         1 5RE       0.133000
     36 H071         6.0860    -0.7850     2.8360 ha         1 5RE       0.127000
     37 H092         3.0500     1.0800     3.7040 hc         1 5RE       0.067200
     38 H091         3.7540    -0.5240     3.4570 hc         1 5RE       0.067200
     39 H13          1.4050    -0.3290     2.1210 hn         1 5RE       0.334500
     40 H151         1.7290    -2.1320    -0.1610 hc         1 5RE       0.055700
     41 H152         1.5850    -1.2970    -1.7130 hc         1 5RE       0.055700
     42 H171         3.4920    -0.1670    -2.7080 ha         1 5RE       0.128500
     43 H181         5.9480    -0.0680    -2.8860 ha         1 5RE       0.140500
     44 H211         6.2970    -2.1040     0.8570 ha         1 5RE       0.140500
     45 H221         3.8400    -2.1970     1.0320 ha         1 5RE       0.128500
     46 H26         -0.1740     0.0320    -2.0340 hn         1 5RE       0.319500
     47 H271        -2.5010    -0.5850    -0.3320 h1         1 5RE       0.085700
     48 H281        -2.6580     1.7280     0.0010 hc         1 5RE       0.047367
     49 H282        -1.9940     2.1030    -1.5950 hc         1 5RE       0.047367
     50 H283        -3.6520     1.5030    -1.4450 hc         1 5RE       0.047367
     51 H301        -4.2350    -1.6710    -1.5100 ha         1 5RE       0.129500
     52 H311        -5.0560    -2.6540    -3.6160 ha         1 5RE       0.132500
     53 H321        -3.9220    -2.1350    -5.7440 ha         1 5RE       0.133000
     54 H331        -1.9710    -0.6270    -5.7640 ha         1 5RE       0.132500
     55 H341        -1.1510     0.3580    -3.6590 ha         1 5RE       0.129500
     56 H011         4.3870     3.0870     3.4340 ha         1 5RE       0.140000
@<TRIPOS>BOND
     1    25    24 1   
     2    31    30 ar  
     3    31    26 ar  
     4    24    26 1   
     5    24    23 1   
     6    30    29 ar  
     7    26    27 ar  
     8    29    28 ar  
     9    23    21 1   
    10    27    28 ar  
    11    22    21 2   
    12    21     1 1   
    13    13     1 1   
    14    13    14 1   
    15    15    14 ar  
    16    15    16 ar  
    17     1    12 1   
    18    14    20 ar  
    19    16    17 ar  
    20    12     2 1   
    21    10     2 1   
    22    10     9 1   
    23    20    19 ar  
    24     2    11 2   
    25    17    19 ar  
    26    17    18 1   
    27     3     9 ar  
    28     3     4 ar  
    29     9     8 ar  
    30     5     4 1   
    31     4     6 ar  
    32     8     7 ar  
    33     6     7 ar  
    34     1    32 1   
    35     3    56 1   
    36     5    33 1   
    37     6    34 1   
    38     7    35 1   
    39     8    36 1   
    40    10    37 1   
    41    10    38 1   
    42    12    39 1   
    43    13    40 1   
    44    13    41 1   
    45    15    42 1   
    46    16    43 1   
    47    19    44 1   
    48    20    45 1   
    49    23    46 1   
    50    24    47 1   
    51    25    48 1   
    52    25    49 1   
    53    25    50 1   
    54    27    51 1   
    55    28    52 1   
    56    29    53 1   
    57    30    54 1   
    58    31    55 1   
@<TRIPOS>SUBSTRUCTURE
     1 5RE         1 TEMP              0 ****  ****    0 ROOT
