@<TRIPOS>MOLECULE
5RF
   59    61     1     0     0
SMALL
bcc


@<TRIPOS>ATOM
      1 C14          1.5070     0.0000     0.0000 c3         1 5RF      -0.056300
      2 C10          3.2170     0.4930     1.6640 c          1 5RF       0.564100
      3 C01          8.9700     4.1510     3.4420 c3         1 5RF       0.243700
      4 O02          8.8820     2.7380     3.2490 os         1 5RF      -0.309900
      5 C03          7.6360     2.1970     3.2100 ca         1 5RF       0.150100
      6 C04          7.4780     0.8310     3.0260 ca         1 5RF      -0.174500
      7 C05          6.2120     0.2820     2.9850 ca         1 5RF      -0.043500
      8 C06          6.5210     3.0080     3.3590 ca         1 5RF      -0.174500
      9 C07          5.2560     2.4540     3.3190 ca         1 5RF      -0.043500
     10 C08          5.1010     1.0940     3.1290 ca         1 5RF      -0.109300
     11 C09          3.7200     0.4930     3.0840 c3         1 5RF      -0.029100
     12 O11          3.9120     0.9370     0.7750 o          1 5RF      -0.636100
     13 N12          1.9950     0.0000     1.3810 ns         1 5RF      -0.183900
     14 C15          2.0170    -1.2490    -0.7210 c3         1 5RF       0.012900
     15 C16          3.5190    -1.1880    -0.8300 ca         1 5RF      -0.061300
     16 C17          4.1110    -0.4150    -1.8120 ca         1 5RF       0.075100
     17 Br1          3.0360     0.5670    -3.0180 br         1 5RF      -0.158100
     18 C19          5.4900    -0.3600    -1.9110 ca         1 5RF      -0.067000
     19 C20          6.2750    -1.0780    -1.0280 ca         1 5RF      -0.087000
     20 C21          5.6830    -1.8510    -0.0470 ca         1 5RF      -0.087000
     21 C22          4.3050    -1.9010     0.0550 ca         1 5RF      -0.097000
     22 C23          0.0000     0.0000     0.0000 c          1 5RF       0.572100
     23 O24         -0.6060    -0.0010     1.0500 o          1 5RF      -0.657100
     24 N25         -0.6740    -0.0000    -1.1670 ns         1 5RF      -0.189900
     25 C27         -2.1390    -0.0000    -1.1670 c3         1 5RF       0.078000
     26 C28         -2.6490     1.4360    -1.0410 c3         1 5RF      -0.014100
     27 C29         -2.6420    -0.6010    -2.4550 ca         1 5RF      -0.109300
     28 C30         -2.0040    -0.3110    -3.6470 ca         1 5RF      -0.094500
     29 C31         -2.4650    -0.8630    -4.8280 ca         1 5RF      -0.094000
     30 C32         -3.5640    -1.7010    -4.8180 ca         1 5RF      -0.097000
     31 C33         -4.2000    -1.9910    -3.6260 ca         1 5RF      -0.094000
     32 C34         -3.7360    -1.4450    -2.4430 ca         1 5RF      -0.094500
     33 H141         1.8680     0.8850    -0.5110 h1         1 5RF       0.078700
     34 H012         8.4540     4.6580     2.6360 h1         1 5RF      -0.002967
     35 H013         8.5100     4.4160     4.3870 h1         1 5RF      -0.002967
     36 H011        10.0110     4.4510     3.4510 h1         1 5RF      -0.002967
     37 H051         6.0880    -0.7840     2.8400 ha         1 5RF       0.101000
     38 H061         6.6420     4.0740     3.5080 ha         1 5RF       0.116000
     39 H071         4.3850     3.0870     3.4330 ha         1 5RF       0.101000
     40 H091         3.7560    -0.5250     3.4540 hc         1 5RF       0.029700
     41 H092         3.0510     1.0780     3.7040 hc         1 5RF       0.029700
     42 H13          1.4130    -0.3460     2.1180 hn         1 5RF       0.196500
     43 H152         1.5850    -1.2940    -1.7140 hc         1 5RF       0.030200
     44 H151         1.7310    -2.1310    -0.1620 hc         1 5RF       0.030200
     45 H191         5.9540     0.2460    -2.6800 ha         1 5RF       0.115000
     46 H201         7.3550    -1.0370    -1.1070 ha         1 5RF       0.105000
     47 H211         6.2980    -2.4110     0.6460 ha         1 5RF       0.101000
     48 H221         3.8410    -2.5070     0.8240 ha         1 5RF       0.104000
     49 H26         -0.1740     0.0280    -2.0330 hn         1 5RF       0.189500
     50 H271        -2.5000    -0.5860    -0.3300 h1         1 5RF       0.059700
     51 H282        -2.6260     1.7380    -0.0010 hc         1 5RF       0.014700
     52 H283        -2.0180     2.0960    -1.6240 hc         1 5RF       0.014700
     53 H281        -3.6660     1.4910    -1.4100 hc         1 5RF       0.014700
     54 H301        -1.1430     0.3460    -3.6550 ha         1 5RF       0.107000
     55 H311        -1.9660    -0.6360    -5.7630 ha         1 5RF       0.105000
     56 H321        -3.9260    -2.1310    -5.7430 ha         1 5RF       0.104000
     57 H331        -5.0590    -2.6500    -3.6170 ha         1 5RF       0.105000
     58 H341        -4.2350    -1.6720    -1.5090 ha         1 5RF       0.107000
     59 H041         8.3480     0.1950     2.9130 ha         1 5RF       0.116000
@<TRIPOS>BOND
     1     1    13 1   
     2     1    14 1   
     3     1    22 1   
     4     1    33 1   
     5     2    11 1   
     6     2    12 2   
     7     2    13 1   
     8     3     4 1   
     9     3    34 1   
    10     3    35 1   
    11     3    36 1   
    12     4     5 1   
    13     5     6 ar  
    14     5     8 ar  
    15     6     7 ar  
    16     6    59 1   
    17     7    10 ar  
    18     7    37 1   
    19     8     9 ar  
    20     8    38 1   
    21     9    10 ar  
    22     9    39 1   
    23    10    11 1   
    24    11    40 1   
    25    11    41 1   
    26    13    42 1   
    27    14    15 1   
    28    14    43 1   
    29    14    44 1   
    30    15    16 ar  
    31    15    21 ar  
    32    16    17 1   
    33    16    18 ar  
    34    18    19 ar  
    35    18    45 1   
    36    19    20 ar  
    37    19    46 1   
    38    20    21 ar  
    39    20    47 1   
    40    21    48 1   
    41    22    23 2   
    42    22    24 1   
    43    24    25 1   
    44    24    49 1   
    45    25    26 1   
    46    25    27 1   
    47    25    50 1   
    48    26    51 1   
    49    26    52 1   
    50    26    53 1   
    51    27    28 ar  
    52    27    32 ar  
    53    28    29 ar  
    54    28    54 1   
    55    29    30 ar  
    56    29    55 1   
    57    30    31 ar  
    58    30    56 1   
    59    31    32 ar  
    60    31    57 1   
    61    32    58 1   
@<TRIPOS>SUBSTRUCTURE
     1 5RF         1 TEMP              0 ****  ****    0 ROOT
