@<TRIPOS>MOLECULE
molecule
   59    61     1     0     0
SMALL
bcc


@<TRIPOS>ATOM
      1 C14          1.5070     0.0000     0.0000 c3         1 5RF       0.045700
      2 C10          3.2170     0.4930     1.6640 c          1 5RF       0.654100
      3 C01          8.9700     4.1510     3.4420 c3         1 5RF       0.129700
      4 O02          8.8820     2.7380     3.2490 os         1 5RF      -0.330900
      5 C03          7.6360     2.1970     3.2100 ca         1 5RF       0.143100
      6 C04          7.4780     0.8310     3.0260 ca         1 5RF      -0.188000
      7 C05          6.2120     0.2820     2.9850 ca         1 5RF      -0.072500
      8 C06          6.5210     3.0080     3.3590 ca         1 5RF      -0.188000
      9 C07          5.2560     2.4540     3.3190 ca         1 5RF      -0.072500
     10 C08          5.1010     1.0940     3.1290 ca         1 5RF      -0.104300
     11 C09          3.7200     0.4930     3.0840 c3         1 5RF      -0.101100
     12 O11          3.9120     0.9370     0.7750 o          1 5RF      -0.592100
     13 N12          1.9950     0.0000     1.3810 ns         1 5RF      -0.574900
     14 C15          2.0170    -1.2490    -0.7210 c3         1 5RF      -0.053100
     15 C16          3.5190    -1.1880    -0.8300 ca         1 5RF      -0.045300
     16 C17          4.1110    -0.4150    -1.8120 ca         1 5RF       0.008100
     17 Br1          3.0360     0.5670    -3.0180 br         1 5RF      -0.118100
     18 C19          5.4900    -0.3600    -1.9110 ca         1 5RF      -0.086000
     19 C20          6.2750    -1.0780    -1.0280 ca         1 5RF      -0.119000
     20 C21          5.6830    -1.8510    -0.0470 ca         1 5RF      -0.111000
     21 C22          4.3050    -1.9010     0.0550 ca         1 5RF      -0.122000
     22 C23          0.0000     0.0000     0.0000 c          1 5RF       0.655100
     23 O24         -0.6060    -0.0010     1.0500 o          1 5RF      -0.617100
     24 N25         -0.6740    -0.0000    -1.1670 ns         1 5RF      -0.576900
     25 C27         -2.1390    -0.0000    -1.1670 c3         1 5RF       0.162000
     26 C28         -2.6490     1.4360    -1.0410 c3         1 5RF      -0.105100
     27 C29         -2.6420    -0.6010    -2.4550 ca         1 5RF      -0.098300
     28 C30         -2.0040    -0.3110    -3.6470 ca         1 5RF      -0.122000
     29 C31         -2.4650    -0.8630    -4.8280 ca         1 5RF      -0.122500
     30 C32         -3.5640    -1.7010    -4.8180 ca         1 5RF      -0.125000
     31 C33         -4.2000    -1.9910    -3.6260 ca         1 5RF      -0.122500
     32 C34         -3.7360    -1.4450    -2.4430 ca         1 5RF      -0.122000
     33 H141         1.8680     0.8850    -0.5110 h1         1 5RF       0.105700
     34 H012         8.4540     4.6580     2.6360 h1         1 5RF       0.041033
     35 H013         8.5100     4.4160     4.3870 h1         1 5RF       0.041033
     36 H011        10.0110     4.4510     3.4510 h1         1 5RF       0.041033
     37 H051         6.0880    -0.7840     2.8400 ha         1 5RF       0.130000
     38 H061         6.6420     4.0740     3.5080 ha         1 5RF       0.137500
     39 H071         4.3850     3.0870     3.4330 ha         1 5RF       0.130000
     40 H091         3.7560    -0.5250     3.4540 hc         1 5RF       0.065200
     41 H092         3.0510     1.0780     3.7040 hc         1 5RF       0.065200
     42 H13          1.4130    -0.3460     2.1180 hn         1 5RF       0.333500
     43 H152         1.5850    -1.2940    -1.7140 hc         1 5RF       0.062700
     44 H151         1.7310    -2.1310    -0.1620 hc         1 5RF       0.062700
     45 H191         5.9540     0.2460    -2.6800 ha         1 5RF       0.142000
     46 H201         7.3550    -1.0370    -1.1070 ha         1 5RF       0.135000
     47 H211         6.2980    -2.4110     0.6460 ha         1 5RF       0.128000
     48 H221         3.8410    -2.5070     0.8240 ha         1 5RF       0.130000
     49 H26         -0.1740     0.0280    -2.0330 hn         1 5RF       0.323500
     50 H271        -2.5000    -0.5860    -0.3300 h1         1 5RF       0.084700
     51 H282        -2.6260     1.7380    -0.0010 hc         1 5RF       0.047033
     52 H283        -2.0180     2.0960    -1.6240 hc         1 5RF       0.047033
     53 H281        -3.6660     1.4910    -1.4100 hc         1 5RF       0.047033
     54 H301        -1.1430     0.3460    -3.6550 ha         1 5RF       0.131000
     55 H311        -1.9660    -0.6360    -5.7630 ha         1 5RF       0.132000
     56 H321        -3.9260    -2.1310    -5.7430 ha         1 5RF       0.132000
     57 H331        -5.0590    -2.6500    -3.6170 ha         1 5RF       0.132000
     58 H341        -4.2350    -1.6720    -1.5090 ha         1 5RF       0.131000
     59 H041         8.3480     0.1950     2.9130 ha         1 5RF       0.137500
@<TRIPOS>BOND
     1    29    28 ar
     2    29    30 ar
     3    28    27 ar
     4    30    31 ar
     5    27    25 1
     6    27    32 ar
     7    26    25 1
     8    31    32 ar
     9    25    24 1
    10    23    22 2
    11    24    22 1
    12    22     1 1
    13    17    16 1
    14    12     2 2
    15     1    14 1
    16     1    13 1
    17    14    15 1
    18     2    13 1
    19     2    11 1
    20     9     8 ar
    21     9    10 ar
    22     8     5 ar
    23    16    15 ar
    24    16    18 ar
    25    15    21 ar
    26    11    10 1
    27    10     7 ar
    28     5     4 1
    29     5     6 ar
    30     4     3 1
    31    18    19 ar
    32    21    20 ar
    33     7     6 ar
    34    19    20 ar
    35     1    33 1
    36     3    34 1
    37     3    35 1
    38     3    36 1
    39     6    59 1
    40     7    37 1
    41     8    38 1
    42     9    39 1
    43    11    40 1
    44    11    41 1
    45    13    42 1
    46    14    43 1
    47    14    44 1
    48    18    45 1
    49    19    46 1
    50    20    47 1
    51    21    48 1
    52    24    49 1
    53    25    50 1
    54    26    51 1
    55    26    52 1
    56    26    53 1
    57    28    54 1
    58    29    55 1
    59    30    56 1
    60    31    57 1
    61    32    58 1
@<TRIPOS>SUBSTRUCTURE
     1 5RF         1 TEMP              0 ****  ****    0 ROOT
