@<TRIPOS>MOLECULE
molecule
   16    16     1     0     0
SMALL
bcc


@<TRIPOS>ATOM
      1 NAA          0.0000     0.0000     0.0000 nv         1 5RG      -0.940200
      2 OAB         -0.0530     0.1210     4.1850 o          1 5RG      -0.835800
      3 OAC         -1.1140    -0.1090     2.2480 o          1 5RG      -0.835800
      4 FAD          4.7910     0.0010     2.7410 f          1 5RG      -0.173900
      5 CAE          2.4090     0.0000     0.0000 ca         1 5RG      -0.181000
      6 CAF          3.6040     0.0000     0.6900 ca         1 5RG      -0.176000
      7 CAG          2.4290     0.0010     2.7830 ca         1 5RG      -0.114000
      8 CAH         -0.0600     0.0000     2.8430 c          1 5RG       0.886200
      9 CAI          1.2040     0.0000     0.6930 ca         1 5RG       0.184600
     10 CAJ          3.6140     0.0000     2.0780 ca         1 5RG       0.062900
     11 CAK          1.2100     0.0010     2.0970 ca         1 5RG      -0.113600
     12 HNAA        -0.6240     0.7780     0.0840 hn         1 5RG       0.423300
     13 HNAB        -0.2200    -0.7540    -0.6210 hn         1 5RG       0.423300
     14 HAE          2.4100    -0.0000    -1.0830 ha         1 5RG       0.112000
     15 HAF          4.5400    -0.0000     0.1450 ha         1 5RG       0.112000
     16 HAG          2.4410    -0.0600     3.8640 ha         1 5RG       0.166000
@<TRIPOS>BOND
     1     1     9 1   
     2     2     8 1   
     3     3     8 1   
     4     4    10 1   
     5     5     6 ar  
     6     5     9 ar  
     7     6    10 ar  
     8     7    10 ar  
     9     7    11 ar  
    10     8    11 1   
    11     9    11 ar  
    12     1    12 1   
    13     1    13 1   
    14     5    14 1   
    15     6    15 1   
    16     7    16 1   
@<TRIPOS>SUBSTRUCTURE
     1 5RG         1 TEMP              0 ****  ****    0 ROOT
