@<TRIPOS>MOLECULE
5RI
   52    54     1     0     0
SMALL
bcc


@<TRIPOS>ATOM
      1 CAB          0.0000     0.0000     0.0000 c3         1 5RI       0.239700
      2 OAS          1.4280     0.0000     0.0000 os         1 5RI      -0.292400
      3 CBA          2.0460     0.0000     1.2110 ca         1 5RI       0.179600
      4 CAK          1.2920    -0.0010     2.3740 ca         1 5RI      -0.261500
      5 CBD          3.4330    -0.0050     1.2840 ca         1 5RI       0.030100
      6 OAU          4.1770    -0.0100     0.1430 os         1 5RI      -0.308900
      7 CAD          4.5340     1.2620    -0.4030 c3         1 5RI       0.249700
      8 CBB          4.0630    -0.0050     2.5230 ca         1 5RI       0.179600
      9 OAT          5.4220    -0.0100     2.5950 os         1 5RI      -0.292400
     10 CAC          6.0020    -0.0100     3.9020 c3         1 5RI       0.239700
     11 CAL          3.3080    -0.0000     3.6850 ca         1 5RI      -0.261500
     12 CAW          1.9210     0.0000     3.6110 ca         1 5RI       0.063600
     13 NAQ          1.1580    -0.0000     4.7850 nu         1 5RI      -0.267300
     14 CAX         -0.0390     0.6880     4.8310 ca         1 5RI       0.766900
     15 NAO         -0.7180     0.7650     5.9700 nb         1 5RI      -0.791000
     16 NAM         -0.5090     1.2790     3.7360 nb         1 5RI      -0.791000
     17 CAH         -1.6540     1.9390     3.7780 ca         1 5RI       0.741900
     18 NAN         -2.3350     2.0130     4.9080 nb         1 5RI      -0.793000
     19 CAY         -1.8690     1.4290     6.0090 ca         1 5RI       0.765900
     20 NAR         -2.5800     1.5120     7.1910 nu         1 5RI      -0.262300
     21 CAZ         -3.8420     2.0970     7.2040 ca         1 5RI       0.071600
     22 CAI         -4.6130     2.1190     6.0490 ca         1 5RI      -0.145000
     23 CAF         -5.8640     2.7010     6.0640 ca         1 5RI      -0.049000
     24 CAG         -6.3610     3.2650     7.2280 ca         1 5RI      -0.137000
     25 CAJ         -5.6110     3.2540     8.3830 ca         1 5RI      -0.059000
     26 CBC         -4.3450     2.6620     8.3850 ca         1 5RI      -0.209600
     27 CAV         -3.5380     2.6400     9.6200 c          1 5RI       0.610700
     28 OAE         -2.3980     2.2200     9.5940 o          1 5RI      -0.674100
     29 NAP         -4.0660     3.0860    10.7780 ns         1 5RI      -0.189900
     30 CAA         -3.2650     3.0630    12.0040 c3         1 5RI       0.085300
     31 HAB1        -0.3610     0.9100     0.4640 h1         1 5RI      -0.001633
     32 HAB2        -0.3610    -0.8570     0.5560 h1         1 5RI      -0.001633
     33 HAB3        -0.3610    -0.0540    -1.0200 h1         1 5RI      -0.001633
     34 HAK          0.2100    -0.0000     2.3180 ha         1 5RI       0.147000
     35 HAD1         3.8090     2.0050    -0.0930 h1         1 5RI      -0.009967
     36 HAD2         5.5170     1.5450    -0.0450 h1         1 5RI      -0.009967
     37 HAD3         4.5480     1.2000    -1.4850 h1         1 5RI      -0.009967
     38 HAL          3.7990    -0.0000     4.6500 ha         1 5RI       0.147000
     39 HAC1         5.6820    -0.8950     4.4390 h1         1 5RI      -0.001633
     40 HAC2         5.6810     0.8740     4.4390 h1         1 5RI      -0.001633
     41 HAC3         7.0820    -0.0090     3.8170 h1         1 5RI      -0.001633
     42 HAH         -2.0350     2.4170     2.8840 h5         1 5RI      -0.002900
     43 HAQ          1.4650    -0.5230     5.5820 hn         1 5RI       0.295800
     44 HAR         -2.2120     1.0980     8.0250 hn         1 5RI       0.342800
     45 HAI         -4.2310     1.6800     5.1350 ha         1 5RI       0.157000
     46 HAF         -6.4620     2.7160     5.1610 ha         1 5RI       0.102000
     47 HAG         -7.3440     3.7220     7.2280 ha         1 5RI       0.105000
     48 HAJ         -6.0060     3.6950     9.2910 ha         1 5RI       0.099000
     49 HAP         -5.0140     3.4060    10.8060 hn         1 5RI       0.178500
     50 HAA1        -2.3690     3.6550    11.8610 h1         1 5RI       0.010700
     51 HAA2        -2.9900     2.0420    12.2370 h1         1 5RI       0.010700
     52 HAA3        -3.8440     3.4770    12.8210 h1         1 5RI       0.010700
@<TRIPOS>BOND
     1     1     2 1   
     2     1    31 1   
     3     1    32 1   
     4     1    33 1   
     5     2     3 1   
     6     3     4 ar  
     7     3     5 ar  
     8     4    12 ar  
     9     4    34 1   
    10     5     6 1   
    11     5     8 ar  
    12     6     7 1   
    13     7    35 1   
    14     7    36 1   
    15     7    37 1   
    16     8     9 1   
    17     8    11 ar  
    18     9    10 1   
    19    10    39 1   
    20    10    40 1   
    21    10    41 1   
    22    11    12 ar  
    23    11    38 1   
    24    12    13 1   
    25    13    14 1   
    26    13    43 1   
    27    14    15 ar  
    28    14    16 ar  
    29    15    19 ar  
    30    16    17 ar  
    31    17    18 ar  
    32    17    42 1   
    33    18    19 ar  
    34    19    20 1   
    35    20    21 1   
    36    20    44 1   
    37    21    22 ar  
    38    21    26 ar  
    39    22    23 ar  
    40    22    45 1   
    41    23    24 ar  
    42    23    46 1   
    43    24    25 ar  
    44    24    47 1   
    45    25    26 ar  
    46    25    48 1   
    47    26    27 1   
    48    27    28 2   
    49    27    29 1   
    50    29    30 1   
    51    29    49 1   
    52    30    50 1   
    53    30    51 1   
    54    30    52 1   
@<TRIPOS>SUBSTRUCTURE
     1 5RI         1 TEMP              0 ****  ****    0 ROOT
