@<TRIPOS>MOLECULE
molecule
   52    54     1     0     0
SMALL
bcc


@<TRIPOS>ATOM
      1 CAB          0.0000     0.0000     0.0000 c3         1 5RI       0.126700
      2 OAS          1.4280     0.0000     0.0000 os         1 5RI      -0.310400
      3 CBA          2.0460     0.0000     1.2110 ca         1 5RI       0.170100
      4 CAK          1.2920    -0.0010     2.3740 ca         1 5RI      -0.266000
      5 CBD          3.4330    -0.0050     1.2840 ca         1 5RI       0.033100
      6 OAU          4.1770    -0.0100     0.1430 os         1 5RI      -0.323900
      7 CAD          4.5340     1.2620    -0.4030 c3         1 5RI       0.133700
      8 CBB          4.0630    -0.0050     2.5230 ca         1 5RI       0.170100
      9 OAT          5.4220    -0.0100     2.5950 os         1 5RI      -0.310400
     10 CAC          6.0020    -0.0100     3.9020 c3         1 5RI       0.126700
     11 CAL          3.3080    -0.0000     3.6850 ca         1 5RI      -0.266000
     12 CAW          1.9210     0.0000     3.6110 ca         1 5RI       0.219600
     13 NAQ          1.1580    -0.0000     4.7850 nu         1 5RI      -0.744300
     14 CAX         -0.0390     0.6880     4.8310 ca         1 5RI       0.994900
     15 NAO         -0.7180     0.7650     5.9700 nb         1 5RI      -0.882000
     16 NAM         -0.5090     1.2790     3.7360 nb         1 5RI      -0.873000
     17 CAH         -1.6540     1.9390     3.7780 ca         1 5RI       0.769900
     18 NAN         -2.3350     2.0130     4.9080 nb         1 5RI      -0.877000
     19 CAY         -1.8690     1.4290     6.0090 ca         1 5RI       0.992900
     20 NAR         -2.5800     1.5120     7.1910 nu         1 5RI      -0.725300
     21 CAZ         -3.8420     2.0970     7.2040 ca         1 5RI       0.223600
     22 CAI         -4.6130     2.1190     6.0490 ca         1 5RI      -0.152000
     23 CAF         -5.8640     2.7010     6.0640 ca         1 5RI      -0.085000
     24 CAG         -6.3610     3.2650     7.2280 ca         1 5RI      -0.163000
     25 CAJ         -5.6110     3.2540     8.3830 ca         1 5RI      -0.084000
     26 CBC         -4.3450     2.6620     8.3850 ca         1 5RI      -0.198600
     27 CAV         -3.5380     2.6400     9.6200 c          1 5RI       0.684700
     28 OAE         -2.3980     2.2200     9.5940 o          1 5RI      -0.629100
     29 NAP         -4.0660     3.0860    10.7780 ns         1 5RI      -0.582900
     30 CAA         -3.2650     3.0630    12.0040 c3         1 5RI       0.102300
     31 HAB1        -0.3610     0.9100     0.4640 h1         1 5RI       0.042700
     32 HAB2        -0.3610    -0.8570     0.5560 h1         1 5RI       0.042700
     33 HAB3        -0.3610    -0.0540    -1.0200 h1         1 5RI       0.042700
     34 HAK          0.2100    -0.0000     2.3180 ha         1 5RI       0.157500
     35 HAD1         3.8090     2.0050    -0.0930 h1         1 5RI       0.032700
     36 HAD2         5.5170     1.5450    -0.0450 h1         1 5RI       0.032700
     37 HAD3         4.5480     1.2000    -1.4850 h1         1 5RI       0.032700
     38 HAL          3.7990    -0.0000     4.6500 ha         1 5RI       0.157500
     39 HAC1         5.6820    -0.8950     4.4390 h1         1 5RI       0.042700
     40 HAC2         5.6810     0.8740     4.4390 h1         1 5RI       0.042700
     41 HAC3         7.0820    -0.0090     3.8170 h1         1 5RI       0.042700
     42 HAH         -2.0350     2.4170     2.8840 h5         1 5RI       0.062100
     43 HAQ          1.4650    -0.5230     5.5820 hn         1 5RI       0.471800
     44 HAR         -2.2120     1.0980     8.0250 hn         1 5RI       0.503800
     45 HAI         -4.2310     1.6800     5.1350 ha         1 5RI       0.177000
     46 HAF         -6.4620     2.7160     5.1610 ha         1 5RI       0.135000
     47 HAG         -7.3440     3.7220     7.2280 ha         1 5RI       0.132000
     48 HAJ         -6.0060     3.6950     9.2910 ha         1 5RI       0.125000
     49 HAP         -5.0140     3.4060    10.8060 hn         1 5RI       0.316500
     50 HAA1        -2.3690     3.6550    11.8610 h1         1 5RI       0.043700
     51 HAA2        -2.9900     2.0420    12.2370 h1         1 5RI       0.043700
     52 HAA3        -3.8440     3.4770    12.8210 h1         1 5RI       0.043700
@<TRIPOS>BOND
     1     1     2 1   
     2     2     3 1   
     3     3     4 ar  
     4     3     5 ar  
     5     4    12 ar  
     6     5     6 1   
     7     5     8 ar  
     8     6     7 1   
     9     8     9 1   
    10     8    11 ar  
    11     9    10 1   
    12    11    12 ar  
    13    12    13 1   
    14    13    14 1   
    15    14    15 ar  
    16    14    16 ar  
    17    15    19 ar  
    18    16    17 ar  
    19    17    18 ar  
    20    18    19 ar  
    21    19    20 1   
    22    20    21 1   
    23    21    22 ar  
    24    21    26 ar  
    25    22    23 ar  
    26    23    24 ar  
    27    24    25 ar  
    28    25    26 ar  
    29    26    27 1   
    30    27    28 2   
    31    27    29 1   
    32    29    30 1   
    33     1    31 1   
    34     1    32 1   
    35     1    33 1   
    36     4    34 1   
    37     7    35 1   
    38     7    36 1   
    39     7    37 1   
    40    11    38 1   
    41    10    39 1   
    42    10    40 1   
    43    10    41 1   
    44    17    42 1   
    45    20    44 1   
    46    22    45 1   
    47    23    46 1   
    48    24    47 1   
    49    25    48 1   
    50    29    49 1   
    51    30    50 1   
    52    30    51 1   
    53    30    52 1   
    54    13    43 1   
@<TRIPOS>SUBSTRUCTURE
     1 5RI         1 TEMP              0 ****  ****    0 ROOT
