@<TRIPOS>MOLECULE
5RL
   37    40     1     0     0
SMALL
bcc


@<TRIPOS>ATOM
      1 C10          0.0000     0.0000     0.0000 ca         1 5RL      -0.019000
      2 C11          2.1620    -0.0090    -1.2160 ca         1 5RL      -0.070300
      3 C12          1.4820     0.0000     0.0000 ca         1 5RL      -0.033000
      4 C14         -2.7560    -0.0020    -0.0260 ca         1 5RL      -0.105000
      5 C15         -0.7040     0.3470     1.1470 ca         1 5RL      -0.106000
      6 C16          3.5420    -0.0410    -1.2340 ca         1 5RL      -0.101000
      7 C19          3.5850    -0.0230     1.1700 ca         1 5RL       0.059100
      8 C20          4.2520    -0.0470    -0.0460 ca         1 5RL      -0.130000
      9 O02          4.2900    -0.0210     2.3320 oh         1 5RL      -0.498100
     10 N03         -0.7270    -0.5430    -3.5800 n3         1 5RL      -0.534600
     11 C04          0.0980    -0.7700    -2.3850 c3         1 5RL       0.196800
     12 C05         -0.6840    -0.3690    -1.1610 ca         1 5RL      -0.066300
     13 C06          1.3840     0.0450    -2.5020 c3         1 5RL       0.029900
     14 C07         -2.0610    -0.3740    -1.1710 ca         1 5RL      -0.071300
     15 C08         -1.9730    -1.3090    -3.5000 c3         1 5RL       0.153800
     16 C09         -2.8550    -0.7910    -2.3760 c3         1 5RL       0.037900
     17 C17          2.1950     0.0000     1.1980 ca         1 5RL       0.122100
     18 C18         -2.0850     0.3520     1.1270 ca         1 5RL      -0.102000
     19 H1           0.5940    -1.7770    -4.6410 h1         1 5RL       0.003033
     20 H2           0.6840    -0.0580    -5.0520 h1         1 5RL       0.003033
     21 H3          -0.6800    -1.0320    -5.6170 h1         1 5RL       0.003033
     22 H4          -3.8400     0.0030    -0.0360 ha         1 5RL       0.102000
     23 H5          -0.1720     0.6240     2.0500 ha         1 5RL       0.146000
     24 H6           4.0700    -0.0600    -2.1790 ha         1 5RL       0.108000
     25 H7           5.3350    -0.0630    -0.0650 ha         1 5RL       0.111000
     26 H8           1.8170    -0.7040     2.9170 ho         1 5RL       0.409000
     27 H9           4.7760     0.7830     2.4040 ho         1 5RL       0.408000
     28 H11         -1.7380    -2.3500    -3.3170 h1         1 5RL       0.007700
     29 H12         -2.5050    -1.2180    -4.4390 h1         1 5RL       0.007700
     30 H13         -3.5270    -1.5880    -2.0800 hc         1 5RL       0.024700
     31 H14         -3.3960     0.0730    -2.7410 hc         1 5RL       0.024700
     32 H15         -2.6380     0.6850     1.9960 ha         1 5RL       0.102000
     33 H10          1.1330     1.0750    -2.7240 hc         1 5RL       0.032200
     34 H16          1.9900    -0.3610    -3.3030 hc         1 5RL       0.032200
     35 H17          0.3480    -1.8220    -2.3190 h1         1 5RL       0.017700
     36 C13          0.0160    -0.8740    -4.8030 c3         1 5RL       0.177100
     37 O01          1.5350     0.0240     2.3870 oh         1 5RL      -0.483100
@<TRIPOS>BOND
     1     1     3 1   
     2     1     5 ar  
     3     1    12 ar  
     4     2     3 ar  
     5     2     6 ar  
     6     2    13 1   
     7     3    17 ar  
     8     4    14 ar  
     9     4    18 ar  
    10     4    22 1   
    11     5    18 ar  
    12     5    23 1   
    13     6     8 ar  
    14     6    24 1   
    15     7     8 ar  
    16     7     9 1   
    17     7    17 ar  
    18     8    25 1   
    19     9    27 1   
    20    10    11 1   
    21    10    15 1   
    22    10    36 1   
    23    11    12 1   
    24    11    13 1   
    25    11    35 1   
    26    12    14 ar  
    27    13    33 1   
    28    13    34 1   
    29    14    16 1   
    30    15    16 1   
    31    15    28 1   
    32    15    29 1   
    33    16    30 1   
    34    16    31 1   
    35    17    37 1   
    36    18    32 1   
    37    19    36 1   
    38    20    36 1   
    39    21    36 1   
    40    26    37 1   
@<TRIPOS>SUBSTRUCTURE
     1 5RL         1 TEMP              0 ****  ****    0 ROOT
