@<TRIPOS>MOLECULE
molecule
   38    39     1     0     0
SMALL
bcc


@<TRIPOS>ATOM
      1 O19          0.0000     0.0000     0.0000 o          1 5RM      -0.632500
      2 C4           1.2140     0.0000     0.0000 c          1 5RM       0.829600
      3 O5           1.9440     0.0000     1.1210 os         1 5RM      -0.377900
      4 N3           1.9470    -0.0060    -1.1230 ns         1 5RM      -0.624900
      5 C2           3.3720    -0.0040    -0.7610 c3         1 5RM       0.060000
      6 C1           3.3600    -0.0010     0.7790 c3         1 5RM       0.178100
      7 C18          4.0430    -1.2580     1.3210 c3         1 5RM      -0.089100
      8 C6           4.0330     1.2380     1.3130 ca         1 5RM      -0.103300
      9 C7           5.1020     1.7900     0.6320 ca         1 5RM      -0.127000
     10 C8           5.7230     2.9260     1.1180 ca         1 5RM      -0.190000
     11 C9           5.2740     3.5140     2.2880 ca         1 5RM       0.123100
     12 O10          5.8820     4.6320     2.7670 os         1 5RM      -0.309900
     13 C11          6.9810     5.1470     2.0110 c3         1 5RM       0.126700
     14 C12          4.1970     2.9590     2.9740 ca         1 5RM       0.123100
     15 C17          3.5770     1.8230     2.4790 ca         1 5RM      -0.161000
     16 O13          3.7520     3.5320     4.1240 os         1 5RM      -0.314900
     17 C14          2.6430     2.9080     4.7740 c3         1 5RM       0.133400
     18 C15          2.2880     3.6890     6.0410 c3         1 5RM      -0.082400
     19 C16          1.1010     3.0200     6.7360 c3         1 5RM      -0.091100
     20 H2           3.7780    -0.9590    -1.0720 h1         1 5RM       0.074200
     21 H181         5.0580    -1.3080     0.9470 hc         1 5RM       0.053700
     22 H182         4.0590    -1.2230     2.4040 hc         1 5RM       0.053700
     23 H183         3.4950    -2.1350     0.9970 hc         1 5RM       0.053700
     24 H7           5.4550     1.3310    -0.2830 ha         1 5RM       0.129000
     25 H8           6.5610     3.3560     0.5820 ha         1 5RM       0.142000
     26 H111         7.3700     6.0330     2.4970 h1         1 5RM       0.041033
     27 H112         7.7600     4.3970     1.9480 h1         1 5RM       0.041033
     28 H113         6.6440     5.4020     1.0130 h1         1 5RM       0.041033
     29 H17          2.7380     1.3890     3.0100 ha         1 5RM       0.161000
     30 H141         2.9050     1.8910     5.0380 h1         1 5RM       0.037700
     31 H142         1.7910     2.8990     4.1050 h1         1 5RM       0.037700
     32 H151         2.0250     4.7060     5.7760 hc         1 5RM       0.055700
     33 H152         3.1400     3.6990     6.7100 hc         1 5RM       0.055700
     34 H161         1.3630     2.0020     6.9990 hc         1 5RM       0.038033
     35 H162         0.8510     3.5720     7.6350 hc         1 5RM       0.038033
     36 H163         0.2480     3.0130     6.0680 hc         1 5RM       0.038033
     37 H18          1.5830    -0.0080    -2.0550 hn         1 5RM       0.363500
     38 H19          3.7770     0.9510    -1.0760 h1         1 5RM       0.074200
@<TRIPOS>BOND
     1     1     2 2
     2     2     3 1
     3     2     4 1
     4     3     6 1
     5     4     5 1
     6     5     6 1
     7     5    20 1
     8     6     7 1
     9     6     8 1
    10     7    21 1
    11     7    22 1
    12     7    23 1
    13     8     9 ar
    14     8    15 ar
    15     9    10 ar
    16     9    24 1
    17    10    11 ar
    18    10    25 1
    19    11    12 1
    20    11    14 ar
    21    12    13 1
    22    13    26 1
    23    13    27 1
    24    13    28 1
    25    14    15 ar
    26    14    16 1
    27    15    29 1
    28    16    17 1
    29    17    18 1
    30    17    30 1
    31    17    31 1
    32    18    19 1
    33    18    32 1
    34    18    33 1
    35    19    34 1
    36    19    35 1
    37    19    36 1
    38     4    37 1
    39     5    38 1
@<TRIPOS>SUBSTRUCTURE
     1 5RM         1 TEMP              0 ****  ****    0 ROOT
