@<TRIPOS>MOLECULE
molecule
   21    22     1     0     0
SMALL
bcc


@<TRIPOS>ATOM
      1 CAA          0.0000     0.0000     0.0000 c3         1 5RN      -0.194100
      2 CAI          1.5080     0.0000     0.0000 c          1 5RN       0.605300
      3 OAB          2.1140     0.0000     1.0510 o          1 5RN      -0.545100
      4 CAJ          2.2170    -0.0000    -1.2270 cc         1 5RN      -0.259400
      5 CAL          3.6820    -0.0000    -1.4040 ca         1 5RN      -0.052800
      6 CAF          4.7620    -0.0000    -0.5270 ca         1 5RN      -0.072000
      7 CAD          6.0460     0.0000    -1.0250 ca         1 5RN      -0.149000
      8 CAC          6.2650     0.0010    -2.3960 ca         1 5RN      -0.110000
      9 CAE          5.2040     0.0010    -3.2750 ca         1 5RN      -0.140000
     10 CAK          3.8990    -0.0000    -2.7910 ca         1 5RN      -0.061200
     11 NAH          2.6660    -0.0000    -3.4090 na         1 5RN      -0.157400
     12 CAG          1.6760    -0.0060    -2.4960 cd         1 5RN      -0.047100
     13 H1          -0.3610     0.8820    -0.5140 hc         1 5RN       0.056367
     14 H2          -0.3610     0.0040     1.0210 hc         1 5RN       0.056367
     15 H3          -0.3610    -0.8870    -0.5070 hc         1 5RN       0.056367
     16 H4           4.5940    -0.0000     0.5430 ha         1 5RN       0.156000
     17 H5           6.8890     0.0010    -0.3450 ha         1 5RN       0.133000
     18 H6           7.2790     0.0010    -2.7780 ha         1 5RN       0.131000
     19 H7           5.3850     0.0010    -4.3430 ha         1 5RN       0.124000
     20 H8           2.5260    -0.0030    -4.4000 hn         1 5RN       0.297700
     21 H9           0.6170    -0.0150    -2.7230 h4         1 5RN       0.170000
@<TRIPOS>BOND
     1     3     2 2   
     2     1     2 1   
     3     2     4 1   
     4     6     7 ar  
     5     6     5 ar  
     6     4     5 1   
     7     4    12 2   
     8     7     8 ar  
     9     5    10 ar  
    10    12    11 1   
    11    10    11 1   
    12    10     9 ar  
    13     8     9 ar  
    14     1    13 1   
    15     1    14 1   
    16     1    15 1   
    17     6    16 1   
    18     7    17 1   
    19     8    18 1   
    20     9    19 1   
    21    11    20 1   
    22    12    21 1   
@<TRIPOS>SUBSTRUCTURE
     1 5RN         1 TEMP              0 ****  ****    0 ROOT
