@<TRIPOS>MOLECULE
molecule
   24    25     1     0     0
SMALL
bcc


@<TRIPOS>ATOM
      1 CAB          0.0000     0.0000     0.0000 c3         1 5RO      -0.047800
      2 CAJ          1.5070     0.0000     0.0000 ca         1 5RO      -0.094300
      3 CAE          2.1960     0.0000     1.1930 ca         1 5RO      -0.111000
      4 CAD          3.5840    -0.0000     1.2070 ca         1 5RO      -0.146000
      5 CAF          4.2910     0.0010     0.0230 ca         1 5RO      -0.076000
      6 CAL          3.6060    -0.0000    -1.1880 ca         1 5RO      -0.049800
      7 CAM          2.2030    -0.0050    -1.2050 ca         1 5RO      -0.058200
      8 NAH          1.8010    -0.0050    -2.5250 na         1 5RO      -0.155400
      9 CAG          2.8670     0.0000    -3.3480 cc         1 5RO      -0.047100
     10 CAK          4.0260    -0.0010    -2.6030 cd         1 5RO      -0.259400
     11 CAI          5.3560     0.0000    -3.0960 c          1 5RO       0.605300
     12 OAC          6.2910     0.0010    -2.3220 o          1 5RO      -0.545100
     13 CAA          5.6080    -0.0000    -4.5820 c3         1 5RO      -0.194100
     14 H1          -0.3610     0.0050     1.0210 hc         1 5RO       0.040700
     15 H2          -0.3610    -0.8870    -0.5060 hc         1 5RO       0.040700
     16 H3          -0.3610     0.8820    -0.5150 hc         1 5RO       0.040700
     17 H4           1.6500    -0.0010     2.1280 ha         1 5RO       0.132000
     18 H5           4.1140    -0.0000     2.1510 ha         1 5RO       0.133000
     19 H6           5.3740     0.0010     0.0360 ha         1 5RO       0.156000
     20 H7           0.8470    -0.0060    -2.8290 hn         1 5RO       0.297700
     21 H8           2.8200     0.0050    -4.4300 h4         1 5RO       0.170000
     22 H9           5.1660     0.8850    -5.0240 hc         1 5RO       0.056367
     23 H10          6.6750    -0.0020    -4.7670 hc         1 5RO       0.056367
     24 H11          5.1640    -0.8840    -5.0230 hc         1 5RO       0.056367
@<TRIPOS>BOND
     1    12    11 2   
     2    13    11 1   
     3    11    10 1   
     4     5     4 ar  
     5     5     6 ar  
     6    10     6 1   
     7    10     9 2   
     8     4     3 ar  
     9     6     7 ar  
    10     9     8 1   
    11     3     2 ar  
    12     7     8 1   
    13     7     2 ar  
    14     2     1 1   
    15     1    14 1   
    16     1    15 1   
    17     1    16 1   
    18     3    17 1   
    19     4    18 1   
    20     5    19 1   
    21     8    20 1   
    22     9    21 1   
    23    13    22 1   
    24    13    23 1   
    25    13    24 1   
@<TRIPOS>SUBSTRUCTURE
     1 5RO         1 TEMP              0 ****  ****    0 ROOT
