@<TRIPOS>MOLECULE
5RT
   58    62     1     0     0
SMALL
bcc


@<TRIPOS>ATOM
      1 C10          0.0000     0.0000     0.0000 c3         1 5RT       0.142800
      2 C12          3.0860    -1.4090    -1.7200 ca         1 5RT      -0.101500
      3 C13          2.3250    -1.3880    -2.8900 ca         1 5RT      -0.017800
      4 C15          0.7450    -1.3540    -4.5020 cc         1 5RT      -0.229100
      5 OH           5.7810     3.8340     1.8180 o          1 5RT      -0.629100
      6 C2           6.0710     6.1140     1.4660 cc         1 5RT      -0.093700
      7 S1           6.1220     7.4330     0.3030 ss         1 5RT      -0.211800
      8 C3           7.0940     8.3740     1.3430 cc         1 5RT      -0.018100
      9 C4           7.3490     7.7210     2.4820 cd         1 5RT      -0.139000
     10 C5           6.7880     6.4690     2.5740 cd         1 5RT      -0.036000
     11 N1           4.2600     4.7920     0.5130 n          1 5RT       0.044000
     12 CD1          3.5440     3.5930     0.3720 ca         1 5RT      -0.092400
     13 CE1          4.1290     2.4030     0.7910 ca         1 5RT      -0.121000
     14 C8           3.4440     1.2130     0.6680 ca         1 5RT      -0.166000
     15 CA           2.1650     1.2050     0.1240 ca         1 5RT       0.056600
     16 N            1.4650     0.0000     0.0000 nh         1 5RT      -0.328900
     17 C11         -0.5100     0.0000     1.4430 c3         1 5RT       0.552900
     18 F1          -0.1410     1.1960     2.0670 f          1 5RT      -0.204633
     19 F2          -1.9050    -0.1150     1.4440 f          1 5RT      -0.204633
     20 F3           0.0480    -1.0800     2.1350 f          1 5RT      -0.204633
     21 S2           2.2930    -1.4270    -0.1470 sy         1 5RT       1.052200
     22 C14          0.8870    -1.3710    -3.1670 cd         1 5RT      -0.187200
     23 N3           1.9740    -1.3600    -5.1020 na         1 5RT       0.394600
     24 C17          2.9630    -1.3800    -4.1440 ca         1 5RT      -0.237200
     25 C18          4.3520    -1.3930    -4.2000 ca         1 5RT      -0.039000
     26 C19          5.0850    -1.4140    -3.0340 ca         1 5RT      -0.123000
     27 C20          4.4510    -1.4220    -1.8000 ca         1 5RT       0.000000
     28 O            1.3130    -2.4550    -0.2040 o          1 5RT      -0.576800
     29 O3           3.3290    -1.3920     0.8260 o          1 5RT      -0.576800
     30 CB           1.5820     2.3920    -0.2950 ca         1 5RT      -0.133000
     31 CG           2.2690     3.5870    -0.1740 ca         1 5RT      -0.092300
     32 CD2          1.6110     4.8560    -0.6480 c3         1 5RT       0.037900
     33 CE2          2.2620     6.0750     0.0060 c3         1 5RT      -0.033400
     34 C25          3.7790     5.9920    -0.1860 c3         1 5RT      -0.032000
     35 H1          -0.3610     0.8840    -0.5110 h1         1 5RT       0.066700
     36 H2          -0.3610    -0.8840    -0.5110 h1         1 5RT       0.066700
     37 H3          -0.2030    -1.3390    -5.0270 h4         1 5RT       0.141000
     38 H4           2.7830    -0.4680    -6.8140 h1         1 5RT       0.018700
     39 H5           1.2550    -1.3220    -7.0670 h1         1 5RT       0.018700
     40 H6           2.7520    -2.2360    -6.8360 h1         1 5RT       0.018700
     41 H7           7.4570     9.3680     1.1110 h4         1 5RT       0.150000
     42 H8           7.9500     8.1480     3.2750 ha         1 5RT       0.124000
     43 H9           6.9090     5.8240     3.4370 ha         1 5RT       0.138000
     44 H10          5.1260     2.4120     1.2150 ha         1 5RT       0.192000
     45 H11          3.8610     0.3030     1.0830 ha         1 5RT       0.192000
     46 H12          0.0890    -1.3720    -2.4340 ha         1 5RT       0.139000
     47 H13          4.8570    -1.3860    -5.1590 ha         1 5RT       0.099000
     48 H14          6.1670    -1.4240    -3.0810 ha         1 5RT       0.110000
     49 H15          5.0420    -1.4390    -0.8920 ha         1 5RT       0.130000
     50 H16          0.5850     2.3830    -0.7190 ha         1 5RT       0.111000
     51 H17          1.7170     4.9310    -1.7240 hc         1 5RT       0.021700
     52 H18          0.5600     4.8310    -0.3880 hc         1 5RT       0.021700
     53 H19          1.8870     6.9780    -0.4590 hc         1 5RT       0.025700
     54 H20          2.0310     6.0820     1.0650 hc         1 5RT       0.025700
     55 H21          4.2480     6.8730     0.2360 h1         1 5RT       0.054700
     56 H22          4.0090     5.9170    -1.2410 h1         1 5RT       0.054700
     57 C16          2.2060    -1.3460    -6.5490 c3         1 5RT      -0.005400
     58 C1           5.3650     4.8430     1.2800 c          1 5RT       0.633700
@<TRIPOS>BOND
     1     1    16 1   
     2     1    17 1   
     3     1    35 1   
     4     1    36 1   
     5     2     3 ar  
     6     2    21 1   
     7     2    27 ar  
     8     3    22 1   
     9     3    24 ar  
    10     4    22 2   
    11     4    23 1   
    12     4    37 1   
    13     5    58 2   
    14     6     7 1   
    15     6    10 2   
    16     6    58 1   
    17     7     8 1   
    18     8     9 2   
    19     8    41 1   
    20     9    10 1   
    21     9    42 1   
    22    10    43 1   
    23    11    12 1   
    24    11    34 1   
    25    11    58 1   
    26    12    13 ar  
    27    12    31 ar  
    28    13    14 ar  
    29    13    44 1   
    30    14    15 ar  
    31    14    45 1   
    32    15    16 1   
    33    15    30 ar  
    34    16    21 1   
    35    17    18 1   
    36    17    19 1   
    37    17    20 1   
    38    21    28 2   
    39    21    29 2   
    40    22    46 1   
    41    23    24 1   
    42    23    57 1   
    43    24    25 ar  
    44    25    26 ar  
    45    25    47 1   
    46    26    27 ar  
    47    26    48 1   
    48    27    49 1   
    49    30    31 ar  
    50    30    50 1   
    51    31    32 1   
    52    32    33 1   
    53    32    51 1   
    54    32    52 1   
    55    33    34 1   
    56    33    53 1   
    57    33    54 1   
    58    34    55 1   
    59    34    56 1   
    60    38    57 1   
    61    39    57 1   
    62    40    57 1   
@<TRIPOS>SUBSTRUCTURE
     1 5RT         1 TEMP              0 ****  ****    0 ROOT
