@<TRIPOS>MOLECULE
molecule
   58    62     1     0     0
SMALL
bcc


@<TRIPOS>ATOM
      1 C10          0.0000     0.0000     0.0000 c3         1 5RT       0.182800
      2 C12          3.0860    -1.4090    -1.7200 ca         1 5RT      -0.266500
      3 C13          2.3250    -1.3880    -2.8900 ca         1 5RT      -0.018800
      4 C15          0.7450    -1.3540    -4.5020 cc         1 5RT      -0.073100
      5 OH           5.7810     3.8340     1.8180 o          1 5RT      -0.587100
      6 C2           6.0710     6.1140     1.4660 cd         1 5RT      -0.126700
      7 S1           6.1220     7.4330     0.3030 ss         1 5RT      -0.084800
      8 C3           7.0940     8.3740     1.3430 cd         1 5RT      -0.101100
      9 C4           7.3490     7.7210     2.4820 cc         1 5RT      -0.169000
     10 C5           6.7880     6.4690     2.5740 cc         1 5RT      -0.075000
     11 N1           4.2600     4.7920     0.5130 n          1 5RT      -0.366000
     12 CD1          3.5440     3.5930     0.3720 ca         1 5RT       0.050600
     13 CE1          4.1290     2.4030     0.7910 ca         1 5RT      -0.129000
     14 C8           3.4440     1.2130     0.6680 ca         1 5RT      -0.169000
     15 CA           2.1650     1.2050     0.1240 ca         1 5RT       0.125600
     16 N            1.4650     0.0000     0.0000 nh         1 5RT      -0.659900
     17 C11         -0.5100     0.0000     1.4430 c3         1 5RT       0.597900
     18 F1          -0.1410     1.1960     2.0670 f          1 5RT      -0.220633
     19 F2          -1.9050    -0.1150     1.4440 f          1 5RT      -0.220633
     20 F3           0.0480    -1.0800     2.1350 f          1 5RT      -0.220633
     21 S2           2.2930    -1.4270    -0.1470 sy         1 5RT       1.432200
     22 C14          0.8870    -1.3710    -3.1670 cd         1 5RT      -0.221200
     23 N3           1.9740    -1.3600    -5.1020 na         1 5RT      -0.072400
     24 C17          2.9630    -1.3800    -4.1440 ca         1 5RT      -0.058200
     25 C18          4.3520    -1.3930    -4.2000 ca         1 5RT      -0.078000
     26 C19          5.0850    -1.4140    -3.0340 ca         1 5RT      -0.139000
     27 C20          4.4510    -1.4220    -1.8000 ca         1 5RT      -0.033000
     28 O            1.3130    -2.4550    -0.2040 o          1 5RT      -0.624800
     29 O3           3.3290    -1.3920     0.8260 o          1 5RT      -0.624800
     30 CB           1.5820     2.3920    -0.2950 ca         1 5RT      -0.137000
     31 CG           2.2690     3.5870    -0.1740 ca         1 5RT      -0.096300
     32 CD2          1.6110     4.8560    -0.6480 c3         1 5RT      -0.030100
     33 CE2          2.2620     6.0750     0.0060 c3         1 5RT      -0.094400
     34 C25          3.7790     5.9920    -0.1860 c3         1 5RT       0.081000
     35 H1          -0.3610     0.8840    -0.5110 h1         1 5RT       0.095700
     36 H2          -0.3610    -0.8840    -0.5110 h1         1 5RT       0.095700
     37 H3          -0.2030    -1.3390    -5.0270 h4         1 5RT       0.169000
     38 H4           2.7830    -0.4680    -6.8140 h1         1 5RT       0.050700
     39 H5           1.2550    -1.3220    -7.0670 h1         1 5RT       0.050700
     40 H6           2.7520    -2.2360    -6.8360 h1         1 5RT       0.050700
     41 H7           7.4570     9.3680     1.1110 h4         1 5RT       0.173000
     42 H8           7.9500     8.1480     3.2750 ha         1 5RT       0.153000
     43 H9           6.9090     5.8240     3.4370 ha         1 5RT       0.171000
     44 H10          5.1260     2.4120     1.2150 ha         1 5RT       0.208000
     45 H11          3.8610     0.3030     1.0830 ha         1 5RT       0.201000
     46 H12          0.0890    -1.3720    -2.4340 ha         1 5RT       0.159000
     47 H13          4.8570    -1.3860    -5.1590 ha         1 5RT       0.129000
     48 H14          6.1670    -1.4240    -3.0810 ha         1 5RT       0.139000
     49 H15          5.0420    -1.4390    -0.8920 ha         1 5RT       0.157000
     50 H16          0.5850     2.3830    -0.7190 ha         1 5RT       0.130000
     51 H17          1.7170     4.9310    -1.7240 hc         1 5RT       0.053200
     52 H18          0.5600     4.8310    -0.3880 hc         1 5RT       0.053200
     53 H19          1.8870     6.9780    -0.4590 hc         1 5RT       0.057700
     54 H20          2.0310     6.0820     1.0650 hc         1 5RT       0.057700
     55 H21          4.2480     6.8730     0.2360 h1         1 5RT       0.062700
     56 H22          4.0090     5.9170    -1.2410 h1         1 5RT       0.062700
     57 C16          2.2060    -1.3460    -6.5490 c3         1 5RT       0.038600
     58 C1           5.3650     4.8430     1.2800 c          1 5RT       0.713700
@<TRIPOS>BOND
     1    29    21 2
     2    28    21 2
     3    21     2 1
     4    21    16 1
     5    20    17 1
     6    22     3 1
     7    22     4 2
     8     2     3 ar
     9     2    27 ar
    10     1    16 1
    11     1    17 1
    12     3    24 ar
    13    16    15 1
    14    27    26 ar
    15    17    18 1
    16    17    19 1
    17     4    23 1
    18    24    23 1
    19    24    25 ar
    20    23    57 1
    21    26    25 ar
    22    30    15 ar
    23    30    31 ar
    24    15    14 ar
    25    32    31 1
    26    32    33 1
    27    31    12 ar
    28    14    13 ar
    29    33    34 1
    30    12    13 ar
    31    12    11 1
    32    34    11 1
    33    11    58 1
    34    10     6 2
    35    10     9 1
    36    58     6 1
    37    58     5 2
    38     6     7 1
    39     9     8 2
    40     8     7 1
    41     1    35 1
    42     1    36 1
    43     4    37 1
    44    57    38 1
    45    57    39 1
    46    57    40 1
    47     8    41 1
    48     9    42 1
    49    10    43 1
    50    13    44 1
    51    14    45 1
    52    22    46 1
    53    25    47 1
    54    26    48 1
    55    27    49 1
    56    30    50 1
    57    32    51 1
    58    32    52 1
    59    33    53 1
    60    33    54 1
    61    34    55 1
    62    34    56 1
@<TRIPOS>SUBSTRUCTURE
     1 5RT         1 TEMP              0 ****  ****    0 ROOT
