@<TRIPOS>MOLECULE
5RU
   31    33     1     0     0
SMALL
bcc


@<TRIPOS>ATOM
      1 C11          0.0000     0.0000     0.0000 ca         1 5RU      -0.107000
      2 C12          1.3820     0.0000     0.0000 ca         1 5RU      -0.048000
      3 C10         -0.6930    -0.0010     1.1970 ca         1 5RU      -0.053000
      4 C13          2.0730     0.0000     1.1970 ca         1 5RU      -0.125000
      5 C9          -0.0040    -0.0070     2.3940 ca         1 5RU      -0.148300
      6 C3          -2.8950    -0.3990     7.3840 cc         1 5RU       0.302800
      7 C14          1.3810    -0.0010     2.3960 ca         1 5RU       0.128900
      8 C4          -3.0260    -1.7720     7.6140 cd         1 5RU      -0.260200
      9 C2          -3.4380     0.5000     8.3290 c          1 5RU       0.519000
     10 C18         -4.1580    -1.3570     9.5840 cc         1 5RU      -0.037200
     11 C6          -1.9380    -1.4240     5.7210 cd         1 5RU       0.392800
     12 C8          -0.7590    -0.0070     3.6990 c3         1 5RU       0.180000
     13 N17         -3.6560    -2.2030     8.7130 nd         1 5RU      -0.335100
     14 N5          -2.4160    -2.3990     6.5560 na         1 5RU       0.334100
     15 N20         -4.0680    -0.0080     9.4110 ns         1 5RU       0.000600
     16 N16         -2.2180    -0.2460     6.2170 nc         1 5RU      -0.531000
     17 F15          2.0560    -0.0020     3.5660 f          1 5RU      -0.123900
     18 S7          -1.0680    -1.7140     4.2160 ss         1 5RU      -0.331400
     19 H1          -0.5410     0.0020    -0.9380 ha         1 5RU       0.116000
     20 H2           1.9230     0.0010    -0.9380 ha         1 5RU       0.115000
     21 H3          -1.7760    -0.0030     1.1960 ha         1 5RU       0.113000
     22 H4           3.1570     0.0020     1.1970 ha         1 5RU       0.128000
     23 H5          -1.7030     0.5070     3.5690 h1         1 5RU       0.063700
     24 H6          -0.1720     0.4990     4.4560 h1         1 5RU       0.063700
     25 H7          -2.3400    -3.3870     6.4180 hn         1 5RU       0.149700
     26 H8          -4.4610     0.6090    10.0940 hn         1 5RU       0.188500
     27 H10         -5.7560    -1.5370    10.6880 hn         1 5RU       0.214800
     28 H11         -4.3480    -1.5100    11.5190 hn         1 5RU       0.214800
     29 N19         -4.8040    -1.8460    10.6930 nz         1 5RU       0.227400
     30 H193        -4.7780    -2.8460    10.6810 hn         1 5RU       0.214800
     31 O1          -3.3430     1.7060     8.1710 o          1 5RU      -0.569500
@<TRIPOS>BOND
     1     1     2 ar  
     2     1     3 ar  
     3     1    19 1   
     4     2     4 ar  
     5     2    20 1   
     6     3     5 ar  
     7     3    21 1   
     8     4     7 ar  
     9     4    22 1   
    10     5     7 ar  
    11     5    12 1   
    12     6     8 2   
    13     6     9 1   
    14     6    16 1   
    15     7    17 1   
    16     8    13 1   
    17     8    14 1   
    18     9    15 1   
    19     9    31 2   
    20    10    13 2   
    21    10    15 1   
    22    10    29 1   
    23    11    14 1   
    24    11    16 2   
    25    11    18 1   
    26    12    18 1   
    27    12    23 1   
    28    12    24 1   
    29    14    25 1   
    30    15    26 1   
    31    27    29 1   
    32    28    29 1   
    33    29    30 1   
@<TRIPOS>SUBSTRUCTURE
     1 5RU         1 TEMP              0 ****  ****    0 ROOT
