@<TRIPOS>MOLECULE
5RW
   31    33     1     0     0
SMALL
bcc


@<TRIPOS>ATOM
      1 C1           0.0000     0.0000     0.0000 ca         1 5RW      -0.050000
      2 C2          -0.0020     0.0110     2.3950 ca         1 5RW      -0.050000
      3 C3           1.3830     0.0000     0.0000 ca         1 5RW      -0.128000
      4 C4           1.3800     0.0000     2.3980 ca         1 5RW      -0.128000
      5 C5          -0.6910     0.0050     1.1970 ca         1 5RW      -0.134300
      6 C6           2.0740     0.0000     1.2000 ca         1 5RW       0.134900
      7 C7          -6.7260     1.7400     1.1910 cc         1 5RW      -0.483200
      8 C8          -6.4460     0.3690     1.1890 cd         1 5RW       0.462300
      9 C9          -4.5400     1.4200     1.1860 cc         1 5RW       0.369800
     10 C10         -8.0600     2.1630     1.1880 c          1 5RW       0.651100
     11 C11         -8.7140    -0.0980     1.1830 cc         1 5RW      -0.030200
     12 C12         -2.1980     0.0040     1.1960 c3         1 5RW       0.181000
     13 N13         -5.4980     2.3890     1.1880 na         1 5RW       0.398100
     14 N14         -7.4670    -0.5110     1.1860 nd         1 5RW      -0.387700
     15 N15         -5.1110     0.2350     1.1910 nd         1 5RW      -0.559000
     16 N16         -9.0340     1.2260     1.1840 ns         1 5RW       0.012600
     17 N17         -9.7240    -1.0280     1.1800 nz         1 5RW       0.220400
     18 O18         -8.3380     3.3530     1.1880 o          1 5RW      -0.616500
     19 F19          3.4250    -0.0110     1.2010 f          1 5RW      -0.117900
     20 S20         -2.8020     1.7100     1.1860 ss         1 5RW      -0.336400
     21 H1          -0.5420    -0.0020    -0.9380 ha         1 5RW       0.112000
     22 H2          -0.5460     0.0130     3.3320 ha         1 5RW       0.112000
     23 H3           1.9250    -0.0020    -0.9380 ha         1 5RW       0.128000
     24 H4           1.9210     0.0030     3.3370 ha         1 5RW       0.128000
     25 H5          -2.5590    -0.5110     0.3140 h1         1 5RW       0.054700
     26 H6          -2.5600    -0.5020     2.0830 h1         1 5RW       0.054700
     27 H7          -5.3460     3.3780     1.1850 hn         1 5RW       0.157700
     28 H9          -9.9950     1.5070     1.1820 hn         1 5RW       0.190500
     29 H10         -9.3300    -1.9480     1.1810 hn         1 5RW       0.217467
     30 H11        -10.2910    -0.9080     1.9960 hn         1 5RW       0.217467
     31 H173       -10.2870    -0.9070     0.3620 hn         1 5RW       0.217467
@<TRIPOS>BOND
     1     1     3 ar  
     2     1     5 ar  
     3     1    21 1   
     4     2     4 ar  
     5     2     5 ar  
     6     2    22 1   
     7     3     6 ar  
     8     3    23 1   
     9     4     6 ar  
    10     4    24 1   
    11     5    12 1   
    12     6    19 1   
    13     7     8 2   
    14     7    10 1   
    15     7    13 1   
    16     8    14 1   
    17     8    15 1   
    18     9    13 1   
    19     9    15 2   
    20     9    20 1   
    21    10    16 1   
    22    10    18 2   
    23    11    14 2   
    24    11    16 1   
    25    11    17 1   
    26    12    20 1   
    27    12    25 1   
    28    12    26 1   
    29    13    27 1   
    30    16    28 1   
    31    17    29 1   
    32    17    30 1   
    33    17    31 1   
@<TRIPOS>SUBSTRUCTURE
     1 5RW         1 TEMP              0 ****  ****    0 ROOT
