@<TRIPOS>MOLECULE
molecule
   31    33     1     0     0
SMALL
bcc


@<TRIPOS>ATOM
      1 C1           0.0000     0.0000     0.0000 ca         1 5RX      -0.097000
      2 C2          -0.0000     0.0100     2.3950 ca         1 5RX      -0.097000
      3 C3           1.3830     0.0000     0.0000 ca         1 5RX      -0.119000
      4 C4           1.3830    -0.0010     2.3960 ca         1 5RX      -0.119000
      5 C5          -0.6910     0.0040     1.1970 ca         1 5RX      -0.112300
      6 C6          -6.4580     0.3930     1.1950 cc         1 5RX       0.328800
      7 C7           2.0750     0.0000     1.1980 ca         1 5RX       0.047400
      8 C8          -6.7230     1.7660     1.1880 cd         1 5RX       0.015800
      9 C9          -7.5470    -0.5070     1.1990 c          1 5RX       0.622000
     10 C10         -8.9950     1.3490     1.1910 cc         1 5RX       0.434800
     11 C11         -4.5390     1.4200     1.1900 cd         1 5RX       0.593800
     12 C12         -2.1980     0.0040     1.1970 c3         1 5RX       0.056000
     13 N13         -7.9910     2.1970     1.1870 nd         1 5RX      -0.546100
     14 N14         -5.5030     2.3930     1.1860 na         1 5RX      -0.257900
     15 N15         -8.8000     0.0000     1.1960 ns         1 5RX      -0.465400
     16 N16         -5.1070     0.2400     1.2010 nc         1 5RX      -0.640000
     17 S19         -2.8010     1.7100     1.1900 ss         1 5RX      -0.208400
     18 Cl1          3.8110    -0.0130     1.1980 cl         1 5RX      -0.082400
     19 H1          -0.5420    -0.0020    -0.9380 ha         1 5RX       0.142000
     20 H2          -0.5430     0.0110     3.3330 ha         1 5RX       0.142000
     21 H3           1.9240    -0.0010    -0.9380 ha         1 5RX       0.156000
     22 H4           1.9240     0.0010     3.3340 ha         1 5RX       0.156000
     23 H5          -2.5590    -0.5030     2.0840 h1         1 5RX       0.093700
     24 H6          -2.5590    -0.5100     0.3150 h1         1 5RX       0.093700
     25 H7          -5.3450     3.3820     1.1780 hn         1 5RX       0.338700
     26 H8          -9.5870    -0.6170     1.1990 hn         1 5RX       0.350500
     27 H10        -10.7600     1.5120     0.3750 hn         1 5RX       0.476467
     28 H11        -10.2560     2.8380     1.1850 hn         1 5RX       0.476467
     29 N17        -10.2790     1.8380     1.1900 nz         1 5RX      -0.723600
     30 H173       -10.7580     1.5190     2.0090 hn         1 5RX       0.476467
     31 O18         -7.3610    -1.7120     1.2030 o          1 5RX      -0.529500
@<TRIPOS>BOND
     1    12     5 1   
     2    12    17 1   
     3     2     5 ar  
     4     2     4 ar  
     5     5     1 ar  
     6     4     7 ar  
     7     1     3 ar  
     8     7     3 ar  
     9     7    18 1   
    10    31     9 2   
    11    17    11 1   
    12    16    11 2   
    13    16     6 1   
    14    11    14 1   
    15     9     6 1   
    16     9    15 1   
    17     6     8 2   
    18    14     8 1   
    19    15    10 1   
    20     8    13 1   
    21    10    13 2   
    22    10    29 1   
    23     1    19 1   
    24     2    20 1   
    25     3    21 1   
    26     4    22 1   
    27    12    23 1   
    28    12    24 1   
    29    14    25 1   
    30    15    26 1   
    31    29    27 1   
    32    29    28 1   
    33    30    29 1   
@<TRIPOS>SUBSTRUCTURE
     1 5RX         1 TEMP              0 ****  ****    0 ROOT
