@<TRIPOS>MOLECULE
molecule
   32    34     1     0     0
SMALL
bcc


@<TRIPOS>ATOM
      1 C1          -2.1270     0.0040     1.2170 cg         1 5RY       0.221800
      2 C2           0.0000     0.0000     0.0000 ca         1 5RY      -0.096000
      3 C3           1.3800     0.0000     0.0000 ca         1 5RY      -0.090000
      4 C4           0.0110     0.0090     2.4150 ca         1 5RY      -0.133000
      5 C5          -0.6960     0.0040     1.2100 ca         1 5RY       0.045000
      6 C6           2.0750     0.0000     1.1960 ca         1 5RY      -0.146300
      7 C7           7.8180     0.4410     1.3060 cd         1 5RY       0.198800
      8 C8           1.3930    -0.0020     2.4010 ca         1 5RY       0.153900
      9 C9           8.0830     1.8130     1.2610 cc         1 5RY      -0.040200
     10 C10          8.9070    -0.4580     1.3580 c          1 5RY       0.767000
     11 C11         10.3550     1.3970     1.3170 cd         1 5RY       0.472800
     12 C12          5.9000     1.4660     1.2350 cc         1 5RY       0.615800
     13 C13          3.5830     0.0000     1.1860 c3         1 5RY       0.032000
     14 N14         -3.2630     0.0160     1.2390 n1         1 5RY      -0.316800
     15 N15          9.3490     2.2430     1.2680 nc         1 5RY      -0.546100
     16 N16          6.8630     2.4390     1.2160 na         1 5RY      -0.261900
     17 N17         10.1590     0.0500     1.3560 ns         1 5RY      -0.562400
     18 N18          6.4670     0.2880     1.2930 nd         1 5RY      -0.645000
     19 F21          2.0780     0.0030     3.5650 f          1 5RY      -0.123900
     20 S22          4.1860     1.7070     1.1840 ss         1 5RY      -0.195400
     21 H1          -0.4530     0.2830    -0.9420 ha         1 5RY       0.159000
     22 H2           2.0840     0.1190    -0.8150 ha         1 5RY       0.148000
     23 H3          -0.4690    -0.2050     3.3630 ha         1 5RY       0.169000
     24 H4           4.0070    -0.9840     1.3450 h1         1 5RY       0.113200
     25 H5           3.7660     0.4020     0.1970 h1         1 5RY       0.113200
     26 H6           7.0770     3.4170     1.2020 hn         1 5RY       0.345700
     27 H7          10.8320    -0.5980     0.9980 hn         1 5RY       0.332500
     28 H9          12.2270     2.0360     2.0750 hn         1 5RY       0.458800
     29 H10         11.6190     2.7070     0.7330 hn         1 5RY       0.458800
     30 N19         11.6040     1.8870     1.3060 nz         1 5RY      -0.716600
     31 H193        12.2840     1.3290     0.8290 hn         1 5RY       0.458800
     32 O20          8.6720    -1.3530     1.6310 o          1 5RY      -0.391500
@<TRIPOS>BOND
     1    30    11 1
     2    15    11 2
     3    15     9 1
     4    11    17 1
     5     9    16 1
     6     9     7 2
     7    16    12 1
     8    17    10 1
     9    14     1 3
    10     7    10 1
    11     7    18 1
    12    10    32 2
    13     1     5 1
    14    12    18 2
    15    12    20 1
    16     5     2 ar
    17     5     4 ar
    18    20    13 1
    19     2     3 ar
    20     4     8 ar
    21     3     6 ar
    22     8     6 ar
    23     8    19 1
    24     6    13 1
    25     2    21 1
    26     3    22 1
    27     4    23 1
    28    13    24 1
    29    13    25 1
    30    16    26 1
    31    17    27 1
    32    30    28 1
    33    30    29 1
    34    31    30 1
@<TRIPOS>SUBSTRUCTURE
     1 5RY         1 TEMP              0 ****  ****    0 ROOT
