@<TRIPOS>MOLECULE
5RY
   32    34     1     0     0
SMALL
bcc


@<TRIPOS>ATOM
      1 C1          -2.1270     0.0040     1.2170 cg         1 5RY       0.202800
      2 C2           0.0000     0.0000     0.0000 ca         1 5RY      -0.071000
      3 C3           1.3800     0.0000     0.0000 ca         1 5RY      -0.060000
      4 C4           0.0110     0.0090     2.4150 ca         1 5RY      -0.108000
      5 C5          -0.6960     0.0040     1.2100 ca         1 5RY       0.098000
      6 C6           2.0750     0.0000     1.1960 ca         1 5RY      -0.146300
      7 C7           7.8180     0.4410     1.3060 cc         1 5RY       0.182800
      8 C8           1.3930    -0.0020     2.4010 ca         1 5RY       0.133900
      9 C9           8.0830     1.8130     1.2610 cd         1 5RY      -0.297200
     10 C10          8.9070    -0.4580     1.3580 c          1 5RY       0.691000
     11 C11         10.3550     1.3970     1.3170 cc         1 5RY       0.011800
     12 C12          5.9000     1.4660     1.2350 cd         1 5RY       0.411800
     13 C13          3.5830     0.0000     1.1860 c3         1 5RY       0.122000
     14 N14         -3.2630     0.0160     1.2390 n1         1 5RY      -0.329800
     15 N15          9.3490     2.2430     1.2680 nd         1 5RY      -0.331100
     16 N16          6.8630     2.4390     1.2160 na         1 5RY       0.325100
     17 N17         10.1590     0.0500     1.3560 ns         1 5RY      -0.181400
     18 N18          6.4670     0.2880     1.2930 nc         1 5RY      -0.539000
     19 F21          2.0780     0.0030     3.5650 f          1 5RY      -0.117900
     20 S22          4.1860     1.7070     1.1840 ss         1 5RY      -0.312400
     21 H1          -0.4530     0.2830    -0.9420 ha         1 5RY       0.126000
     22 H2           2.0840     0.1190    -0.8150 ha         1 5RY       0.119000
     23 H3          -0.4690    -0.2050     3.3630 ha         1 5RY       0.139000
     24 H4           4.0070    -0.9840     1.3450 h1         1 5RY       0.088200
     25 H5           3.7660     0.4020     0.1970 h1         1 5RY       0.088200
     26 H6           7.0770     3.4170     1.2020 hn         1 5RY       0.160700
     27 H7          10.8320    -0.5980     0.9980 hn         1 5RY       0.192500
     28 H9          12.2270     2.0360     2.0750 hn         1 5RY       0.198467
     29 H10         11.6190     2.7070     0.7330 hn         1 5RY       0.198467
     30 N19         11.6040     1.8870     1.3060 nz         1 5RY       0.245400
     31 H193        12.2840     1.3290     0.8290 hn         1 5RY       0.198467
     32 O20          8.6720    -1.3530     1.6310 o          1 5RY      -0.437500
@<TRIPOS>BOND
     1     1     5 1   
     2     1    14 3   
     3     2     3 ar  
     4     2     5 ar  
     5     2    21 1   
     6     3     6 ar  
     7     3    22 1   
     8     4     5 ar  
     9     4     8 ar  
    10     4    23 1   
    11     6     8 ar  
    12     6    13 1   
    13     7     9 2   
    14     7    10 1   
    15     7    18 1   
    16     8    19 1   
    17     9    15 1   
    18     9    16 1   
    19    10    17 1   
    20    10    32 2   
    21    11    15 2   
    22    11    17 1   
    23    11    30 1   
    24    12    16 1   
    25    12    18 2   
    26    12    20 1   
    27    13    20 1   
    28    13    24 1   
    29    13    25 1   
    30    16    26 1   
    31    17    27 1   
    32    28    30 1   
    33    29    30 1   
    34    30    31 1   
@<TRIPOS>SUBSTRUCTURE
     1 5RY         1 TEMP              0 ****  ****    0 ROOT
