@<TRIPOS>MOLECULE
molecule
   33    35     1     0     0
SMALL
bcc


@<TRIPOS>ATOM
      1 C1           0.0000     0.0000     0.0000 ca         1 5RZ      -0.073500
      2 C2           0.0140    -0.0060     2.4180 ca         1 5RZ      -0.073500
      3 C3           1.3780     0.0000     0.0000 ca         1 5RZ      -0.114500
      4 C4           1.3920     0.0000     2.4030 ca         1 5RZ      -0.114500
      5 C5          -0.6960     0.0000     1.2130 ca         1 5RZ      -0.177600
      6 C6          -5.3600     0.0070     6.0400 cc         1 5RZ       0.328800
      7 C7           2.0740     0.0000     1.1970 ca         1 5RZ       0.016100
      8 C8          -6.6840     0.0050     5.5910 cc         1 5RZ       0.016800
      9 C9          -5.1180     0.0040     7.4330 c          1 5RZ       0.623000
     10 C10         -7.4480    -0.0020     7.7710 cd         1 5RZ       0.434800
     11 C11         -5.3030     0.0120     3.8650 cd         1 5RZ       0.581800
     12 C12         -2.1670     0.0060     1.2220 c          1 5RZ       0.595700
     13 C13         -2.9130     0.0060     2.5320 c3         1 5RZ      -0.121300
     14 N14         -7.6860     0.0000     6.4780 nc         1 5RZ      -0.545100
     15 N15         -6.6250     0.0090     4.2200 na         1 5RZ      -0.255900
     16 N16         -6.1790     0.0060     8.2690 ns         1 5RZ      -0.465400
     17 N17         -4.5590     0.0060     4.9430 nc         1 5RZ      -0.647000
     18 O19         -2.7790     0.0120     0.1750 o          1 5RZ      -0.508100
     19 S21         -4.6940     0.0140     2.2110 ss         1 5RZ      -0.137400
     20 Br1          3.9650    -0.0010     1.1870 br         1 5RZ      -0.063100
     21 H1          -0.5430     0.0020    -0.9380 ha         1 5RZ       0.150000
     22 H2          -0.5180    -0.0060     3.3620 ha         1 5RZ       0.150000
     23 H3           1.9180     0.0000    -0.9390 ha         1 5RZ       0.156500
     24 H4           1.9430    -0.0020     3.3360 ha         1 5RZ       0.156500
     25 H5          -2.6440     0.8880     3.1000 h1         1 5RZ       0.109700
     26 H6          -2.6520    -0.8810     3.0960 h1         1 5RZ       0.109700
     27 H7          -7.4060     0.0120     3.5940 hn         1 5RZ       0.339700
     28 H8          -6.0320     0.0050     9.2590 hn         1 5RZ       0.350500
     29 H10         -8.4570    -0.8090     9.2320 hn         1 5RZ       0.476800
     30 H11         -8.4730     0.8250     9.2090 hn         1 5RZ       0.476800
     31 N18         -8.5070     0.0000     8.6440 nz         1 5RZ      -0.722600
     32 H183        -9.3650    -0.0150     8.1280 hn         1 5RZ       0.476800
     33 O20         -3.9790    -0.0000     7.8680 o          1 5RZ      -0.532500
@<TRIPOS>BOND
     1    31    10 1   
     2    14    10 2   
     3    14     8 1   
     4    10    16 1   
     5     8    15 1   
     6     8     6 2   
     7    15    11 1   
     8    16     9 1   
     9     6     9 1   
    10     6    17 1   
    11     9    33 2   
    12    11    17 2   
    13    11    19 1   
    14    19    13 1   
    15     3     1 ar  
    16     3     7 ar  
    17     1     5 ar  
    18    20     7 1   
    19     7     4 ar  
    20     5     2 ar  
    21     5    12 1   
    22     4     2 ar  
    23    12    13 1   
    24    12    18 2   
    25     1    21 1   
    26     2    22 1   
    27     3    23 1   
    28     4    24 1   
    29    13    25 1   
    30    13    26 1   
    31    15    27 1   
    32    16    28 1   
    33    31    29 1   
    34    31    30 1   
    35    32    31 1   
@<TRIPOS>SUBSTRUCTURE
     1 5RZ         1 TEMP              0 ****  ****    0 ROOT
