@<TRIPOS>MOLECULE
5RZ
   33    35     1     0     0
SMALL
bcc


@<TRIPOS>ATOM
      1 C1           0.0000     0.0000     0.0000 ca         1 5RZ      -0.041000
      2 C2           0.0140    -0.0060     2.4180 ca         1 5RZ      -0.041000
      3 C3           1.3780     0.0000     0.0000 ca         1 5RZ      -0.092000
      4 C4           1.3920     0.0000     2.4030 ca         1 5RZ      -0.092000
      5 C5          -0.6960     0.0000     1.2130 ca         1 5RZ      -0.195600
      6 C6          -5.3600     0.0070     6.0400 cc         1 5RZ       0.302800
      7 C7           2.0740     0.0000     1.1970 ca         1 5RZ       0.062100
      8 C8          -6.6840     0.0050     5.5910 cd         1 5RZ      -0.259200
      9 C9          -5.1180     0.0040     7.4330 c          1 5RZ       0.520000
     10 C10         -7.4480    -0.0020     7.7710 cc         1 5RZ      -0.035200
     11 C11         -5.3030     0.0120     3.8650 cd         1 5RZ       0.381800
     12 C12         -2.1670     0.0060     1.2220 c          1 5RZ       0.646700
     13 C13         -2.9130     0.0060     2.5320 c3         1 5RZ      -0.005300
     14 N14         -7.6860     0.0000     6.4780 nd         1 5RZ      -0.335100
     15 N15         -6.6250     0.0090     4.2200 na         1 5RZ       0.340100
     16 N16         -6.1790     0.0060     8.2690 ns         1 5RZ       0.001600
     17 N17         -4.5590     0.0060     4.9430 nc         1 5RZ      -0.541000
     18 O19         -2.7790     0.0120     0.1750 o          1 5RZ      -0.531100
     19 S21         -4.6940     0.0140     2.2110 ss         1 5RZ      -0.275400
     20 Br1          3.9650    -0.0010     1.1870 br         1 5RZ      -0.095100
     21 H1          -0.5430     0.0020    -0.9380 ha         1 5RZ       0.118500
     22 H2          -0.5180    -0.0060     3.3620 ha         1 5RZ       0.118500
     23 H3           1.9180     0.0000    -0.9390 ha         1 5RZ       0.126000
     24 H4           1.9430    -0.0020     3.3360 ha         1 5RZ       0.126000
     25 H5          -2.6440     0.8880     3.1000 h1         1 5RZ       0.076700
     26 H6          -2.6520    -0.8810     3.0960 h1         1 5RZ       0.076700
     27 H7          -7.4060     0.0120     3.5940 hn         1 5RZ       0.150700
     28 H8          -6.0320     0.0050     9.2590 hn         1 5RZ       0.189500
     29 H10         -8.4570    -0.8090     9.2320 hn         1 5RZ       0.215133
     30 H11         -8.4730     0.8250     9.2090 hn         1 5RZ       0.215133
     31 N18         -8.5070     0.0000     8.6440 nz         1 5RZ       0.227400
     32 H183        -9.3650    -0.0150     8.1280 hn         1 5RZ       0.215133
     33 O20         -3.9790    -0.0000     7.8680 o          1 5RZ      -0.571500
@<TRIPOS>BOND
     1     1     3 ar  
     2     1     5 ar  
     3     1    21 1   
     4     2     4 ar  
     5     2     5 ar  
     6     2    22 1   
     7     3     7 ar  
     8     3    23 1   
     9     4     7 ar  
    10     4    24 1   
    11     5    12 1   
    12     6     8 2   
    13     6     9 1   
    14     6    17 1   
    15     7    20 1   
    16     8    14 1   
    17     8    15 1   
    18     9    16 1   
    19     9    33 2   
    20    10    14 2   
    21    10    16 1   
    22    10    31 1   
    23    11    15 1   
    24    11    17 2   
    25    11    19 1   
    26    12    13 1   
    27    12    18 2   
    28    13    19 1   
    29    13    25 1   
    30    13    26 1   
    31    15    27 1   
    32    16    28 1   
    33    29    31 1   
    34    30    31 1   
    35    31    32 1   
@<TRIPOS>SUBSTRUCTURE
     1 5RZ         1 TEMP              0 ****  ****    0 ROOT
