@<TRIPOS>MOLECULE
molecule
   37    39     1     0     0
SMALL
bcc


@<TRIPOS>ATOM
      1 C2           0.0000     0.0000     0.0000 ca         1 5S7       1.005900
      2 C4           1.9990     0.0000     1.1450 ca         1 5S7       0.547800
      3 C5           1.2910     0.0020     2.3580 ca         1 5S7      -0.257200
      4 C6          -0.1140     0.0030     2.3090 ca         1 5S7       0.823200
      5 C8           3.4040     0.0010     2.8450 cc         1 5S7       0.363700
      6 O3'          6.5850     1.3510    -0.9350 oh         1 5S7      -0.569800
      7 C3'          6.2600     1.4190     0.4540 c3         1 5S7       0.081100
      8 C4'          6.6840     0.1230     1.1720 c3         1 5S7       0.140100
      9 C5'          7.6980     0.4450     2.2710 c3         1 5S7       0.003700
     10 S5'          8.3000    -1.0990     3.0090 ss         1 5S7      -0.320200
     11 CS           9.4720    -0.5200     4.2680 c3         1 5S7      -0.005000
     12 C2'          4.7250     1.4760     0.6500 c3         1 5S7       0.062100
     13 O2'          4.0850     2.0180    -0.5080 oh         1 5S7      -0.553800
     14 C1'          4.3820    -0.0030     0.9570 c3         1 5S7       0.275800
     15 O4'          5.5000    -0.4510     1.7520 os         1 5S7      -0.407600
     16 N9           3.3290    -0.0010     1.4840 na         1 5S7      -0.208000
     17 N7           2.2070     0.0020     3.3570 nd         1 5S7      -0.567100
     18 N3           1.3230     0.0000     0.0000 nb         1 5S7      -0.843000
     19 N1          -0.7090     0.0020     1.1210 nb         1 5S7      -0.883000
     20 N6          -0.8620     0.0050     3.4730 nv         1 5S7      -0.983500
     21 N2          -0.6680     0.0060    -1.2140 nv         1 5S7      -0.988500
     22 H1           4.3240     0.0000     3.4170 h5         1 5S7       0.102800
     23 H2           7.2470     1.9920    -1.1360 ho         1 5S7       0.402000
     24 H3           6.7310     2.2780     0.9180 h1         1 5S7       0.040700
     25 H4           7.1150    -0.5670     0.4570 h1         1 5S7       0.089700
     26 H5           8.5320     0.9900     1.8450 h1         1 5S7       0.063200
     27 H6           7.2240     1.0490     3.0350 h1         1 5S7       0.063200
     28 H7           8.9580     0.1270     4.9690 h1         1 5S7       0.060033
     29 H8          10.2730     0.0300     3.7900 h1         1 5S7       0.060033
     30 H9           9.8830    -1.3710     4.7970 h1         1 5S7       0.060033
     31 H10          4.5080     2.0670     1.5310 h1         1 5S7       0.049700
     32 H11          4.0190     2.9550    -0.4210 ho         1 5S7       0.402000
     33 H12          4.2960    -0.5970     0.0550 h2         1 5S7       0.083700
     34 H13         -0.4050    -0.0550     4.3620 hn         1 5S7       0.450800
     35 H14         -1.8600     0.0580     3.4270 hn         1 5S7       0.450800
     36 H15         -1.6680    -0.0040    -1.2340 hn         1 5S7       0.451800
     37 H16         -0.1500     0.0200    -2.0700 hn         1 5S7       0.451800
@<TRIPOS>BOND
     1    11    10 1   
     2     9    10 1   
     3     9     8 1   
     4     6     7 1   
     5     7     8 1   
     6     7    12 1   
     7     8    15 1   
     8    12    13 1   
     9    12    14 1   
    10    15    14 1   
    11    14    16 1   
    12    18     2 ar  
    13    18     1 ar  
    14    16     2 1   
    15    16     5 1   
    16    21     1 1   
    17     2     3 ar  
    18     1    19 ar  
    19     5    17 2   
    20     3    17 1   
    21     3     4 ar  
    22    19     4 ar  
    23     4    20 1   
    24     5    22 1   
    25     6    23 1   
    26     7    24 1   
    27     8    25 1   
    28     9    26 1   
    29     9    27 1   
    30    11    28 1   
    31    11    29 1   
    32    11    30 1   
    33    12    31 1   
    34    13    32 1   
    35    14    33 1   
    36    20    34 1   
    37    20    35 1   
    38    21    36 1   
    39    21    37 1   
@<TRIPOS>SUBSTRUCTURE
     1 5S7         1 TEMP              0 ****  ****    0 ROOT
