@<TRIPOS>MOLECULE
molecule
   60    63     1     0     0
SMALL
bcc


@<TRIPOS>ATOM
      1 CAB          0.0000     0.0000     0.0000 ca         1 5S8      -0.113000
      2 CAC          1.3860     0.0000     0.0000 ca         1 5S8       0.052100
      3 CAD          2.0810     0.0000     1.2020 ca         1 5S8      -0.113000
      4 CAE         -0.6920    -0.0010     1.1960 ca         1 5S8      -0.179000
      5 CAF          0.0030     0.0010     2.3990 ca         1 5S8       0.196600
      6 CAG          1.3920     0.0000     2.3980 ca         1 5S8      -0.179000
      7 CAL         -0.2610    -3.4120     6.4030 ca         1 5S8      -0.056000
      8 CAM          0.3240    -2.1560     6.2520 ca         1 5S8      -0.203500
      9 CAN          1.3140    -1.7380     7.1380 ca         1 5S8       0.196100
     10 CAQ          0.1450    -4.2510     7.4410 ca         1 5S8      -0.003000
     11 CAR          1.1340    -3.8330     8.3250 ca         1 5S8      -0.065000
     12 CAS          1.7200    -2.5750     8.1740 ca         1 5S8      -0.196000
     13 CAT         -0.5110    -5.6520     7.6050 cc         1 5S8      -0.346400
     14 CAU          0.1220    -6.8280     8.1630 cd         1 5S8       0.329600
     15 CAV          1.6100    -6.9560     8.5440 c3         1 5S8      -0.101400
     16 CAY         -2.1270    -7.5280     7.5630 cc         1 5S8       0.336300
     17 NAH         -0.6970     0.0010     3.6110 nu         1 5S8      -1.017400
     18 NAX         -3.4120    -8.0700     7.0830 ns         1 5S8      -0.545400
     19 NAZ         -0.9120    -8.0080     8.1300 nd         1 5S8      -0.620000
     20 OAA          2.0670    -0.0000    -1.1780 oh         1 5S8      -0.522100
     21 OAI         -0.4040    -1.9620     3.5210 oh         1 5S8      -0.574200
     22 OAK         -1.6470    -0.3480     5.3090 oh         1 5S8      -0.574200
     23 OAO          1.9280    -0.4750     6.9670 os         1 5S8      -0.344900
     24 SAJ         -0.2050    -1.0700     4.9040 s6         1 5S8       0.895900
     25 SAW         -1.9300    -6.0320     7.2090 ss         1 5S8       0.236700
     26 CBA         -3.6470    -9.3950     7.1390 c          1 5S8       0.681100
     27 CBC         -4.9610    -9.9490     6.6490 c3         1 5S8      -0.117700
     28 CBD         -4.9950   -11.4830     6.8130 c3         1 5S8      -0.184400
     29 CBE         -5.1080    -9.7260     5.1230 c3         1 5S8      -0.184400
     30 CBF         -6.1520   -10.4520     8.5430 c3         1 5S8      -0.100900
     31 CBG         -5.3230   -11.7050     8.1000 c3         1 5S8      -0.100900
     32 OBB         -2.8170   -10.1270     7.5740 o          1 5S8      -0.548100
     33 HAB         -0.5420     0.0000    -0.9380 ha         1 5S8       0.135500
     34 HAD          3.1640    -0.0000     1.2010 ha         1 5S8       0.135500
     35 HAE         -1.7750    -0.0010     1.1950 ha         1 5S8       0.126500
     36 HAG          1.9340     0.0000     3.3350 ha         1 5S8       0.126500
     37 HAP          3.2990    -0.3440     8.4860 h1         1 5S8       0.040367
     38 HAQ          2.5270     1.1780     8.0210 h1         1 5S8       0.040367
     39 HAR          1.6190    -0.0280     8.9440 h1         1 5S8       0.040367
     40 HAS          1.4490    -4.4840     9.1320 ha         1 5S8       0.143000
     41 HAT          2.4900    -2.2500     8.8630 ha         1 5S8       0.141000
     42 HAV          1.7670    -6.5410     9.5320 hc         1 5S8       0.053700
     43 HAW          1.8950    -8.0020     8.5410 hc         1 5S8       0.053700
     44 HAX          2.2150    -6.4160     7.8250 hc         1 5S8       0.053700
     45 HAH         -1.6130    -0.4000     3.6590 hn         1 5S8       0.336800
     46 HBL         -4.0670    -7.4690     6.6220 hn         1 5S8       0.343500
     47 HAA          2.2050    -0.8890    -1.4610 ho         1 5S8       0.410000
     48 H1          -1.3190    -1.9990     3.2990 ho         1 5S8       0.478500
     49 H2          -1.9100     0.2370     4.6180 ho         1 5S8       0.478500
     50 HBC         -5.7860    -9.4920     7.1830 hc         1 5S8       0.116700
     51 HBD         -5.7440   -11.9110     6.1580 hc         1 5S8       0.061450
     52 HBE         -4.0190   -11.9020     6.6000 hc         1 5S8       0.061450
     53 HBF         -4.1320    -9.6770     4.6570 hc         1 5S8       0.061450
     54 HBG         -5.7000   -10.5210     4.6850 hc         1 5S8       0.061450
     55 HBH         -6.7670   -11.3440     8.5630 hc         1 5S8       0.079700
     56 HBI         -6.6910    -9.6080     8.9550 hc         1 5S8       0.079700
     57 HBJ         -4.4280   -11.7940     8.7040 hc         1 5S8       0.079700
     58 HBK         -5.9280   -12.6000     8.1810 hc         1 5S8       0.079700
     59 HAL         -1.0310    -3.7360     5.7140 ha         1 5S8       0.120000
     60 CAP          2.3690     0.1180     8.1760 c3         1 5S8       0.123700
@<TRIPOS>BOND
     1     1     2 ar  
     2     1     4 ar  
     3     2     3 ar  
     4     2    20 1   
     5     3     6 ar  
     6     4     5 ar  
     7     5     6 ar  
     8     5    17 1   
     9     7     8 ar  
    10     7    10 ar  
    11     8     9 ar  
    12     8    24 1   
    13     9    12 ar  
    14     9    23 1   
    15    60    23 1   
    16    10    11 ar  
    17    10    13 1   
    18    11    12 ar  
    19    13    14 2   
    20    13    25 1   
    21    14    15 1   
    22    14    19 1   
    23    16    18 1   
    24    16    19 2   
    25    16    25 1   
    26    17    24 3   
    27    18    26 1   
    28    21    24 1   
    29    22    24 1   
    30    26    27 1   
    31    26    32 2   
    32    27    28 1   
    33    27    29 1   
    34    28    31 1   
    35    29    30 1   
    36    30    31 1   
    37     1    33 1   
    38     3    34 1   
    39     4    35 1   
    40     6    36 1   
    41     7    59 1   
    42    60    37 1   
    43    60    38 1   
    44    60    39 1   
    45    11    40 1   
    46    12    41 1   
    47    15    42 1   
    48    15    43 1   
    49    15    44 1   
    50    17    45 1   
    51    18    46 1   
    52    20    47 1   
    53    21    48 1   
    54    22    49 1   
    55    27    50 1   
    56    28    51 1   
    57    28    52 1   
    58    29    53 1   
    59    29    54 1   
    60    30    55 1   
    61    30    56 1   
    62    31    57 1   
    63    31    58 1   
@<TRIPOS>SUBSTRUCTURE
     1 5S8         1 TEMP              0 ****  ****    0 ROOT
