@<TRIPOS>MOLECULE
5S8
   60    62     1     0     0
SMALL
bcc


@<TRIPOS>ATOM
      1 CAB          0.0000     0.0000     0.0000 ca         1 5S8      -0.102000
      2 CAC          1.3860     0.0000     0.0000 ca         1 5S8       0.022000
      3 CAD          2.0810     0.0000     1.2020 ca         1 5S8      -0.102000
      4 CAE         -0.6920    -0.0010     1.1960 ca         1 5S8      -0.152500
      5 CAF          0.0030     0.0010     2.3990 ca         1 5S8       0.081000
      6 CAG          1.3920     0.0000     2.3980 ca         1 5S8      -0.152500
      7 CAL         -0.2610    -3.4120     6.4030 ca         1 5S8      -0.037000
      8 CAM          0.3240    -2.1560     6.2520 ca         1 5S8      -0.450000
      9 CAN          1.3140    -1.7380     7.1380 ca         1 5S8       0.185000
     10 CAQ          0.1450    -4.2510     7.4410 ca         1 5S8       0.004000
     11 CAR          1.1340    -3.8330     8.3250 ca         1 5S8      -0.042000
     12 CAS          1.7200    -2.5750     8.1740 ca         1 5S8      -0.191000
     13 CAT         -0.5110    -5.6520     7.6050 c2         1 5S8      -0.433000
     14 CAU          0.1220    -6.8280     8.1630 c2         1 5S8      -0.086000
     15 CAV          1.6100    -6.9560     8.5440 c3         1 5S8      -0.020000
     16 CAY         -2.1270    -7.5280     7.5630 c2         1 5S8      -0.329000
     17 NAH         -0.6970     0.0010     3.6110 nu         1 5S8      -0.541000
     18 NAX         -3.4120    -8.0700     7.0830 ns         1 5S8       0.128000
     19 NAZ         -0.9120    -8.0080     8.1300 n2         1 5S8      -0.085000
     20 OAA          2.0670    -0.0000    -1.1780 oh         1 5S8      -0.254000
     21 OAI         -0.4040    -1.9620     3.5210 oh         1 5S8      -0.484500
     22 OAK         -1.6470    -0.3480     5.3090 oh         1 5S8      -0.484500
     23 OAO          1.9280    -0.4750     6.9670 os         1 5S8      -0.188000
     24 SAJ         -0.2050    -1.0700     4.9040 s6         1 5S8       1.253000
     25 SAW         -1.9300    -6.0320     7.2090 ss         1 5S8       0.557000
     26 CBA         -3.6470    -9.3950     7.1390 c2         1 5S8       0.223000
     27 CBC         -4.9610    -9.9490     6.6490 c3         1 5S8      -0.082000
     28 CBD         -4.9950   -11.4830     6.8130 c3         1 5S8      -0.119000
     29 CBE         -5.1080    -9.7260     5.1230 c2         1 5S8      -0.306000
     30 CBF         -6.1520   -10.4520     8.5430 c2         1 5S8      -0.245000
     31 CBG         -5.3230   -11.7050     8.1000 c3         1 5S8      -0.001000
     32 OBB         -2.8170   -10.1270     7.5740 o          1 5S8      -0.339000
     33 HAB         -0.5420     0.0000    -0.9380 ha         1 5S8       0.106000
     34 HAD          3.1640    -0.0000     1.2010 ha         1 5S8       0.106000
     35 HAE         -1.7750    -0.0010     1.1950 ha         1 5S8       0.108500
     36 HAG          1.9340     0.0000     3.3350 ha         1 5S8       0.108500
     37 HAP          3.2990    -0.3440     8.4860 h1         1 5S8       0.035000
     38 HAQ          2.5270     1.1780     8.0210 h1         1 5S8       0.035000
     39 HAR          1.6190    -0.0280     8.9440 h1         1 5S8       0.035000
     40 HAS          1.4490    -4.4840     9.1320 ha         1 5S8       0.117000
     41 HAT          2.4900    -2.2500     8.8630 ha         1 5S8       0.124000
     42 HAV          1.7670    -6.5410     9.5320 hc         1 5S8       0.054667
     43 HAW          1.8950    -8.0020     8.5410 hc         1 5S8       0.054667
     44 HAX          2.2150    -6.4160     7.8250 hc         1 5S8       0.054667
     45 HAH         -1.6130    -0.4000     3.6590 hn         1 5S8       0.048000
     46 HBL         -4.0670    -7.4690     6.6220 hn         1 5S8       0.105000
     47 HAA          2.2050    -0.8890    -1.4610 ho         1 5S8       0.192000
     48 H1          -1.3190    -1.9990     3.2990 ho         1 5S8       0.276500
     49 H2          -1.9100     0.2370     4.6180 ho         1 5S8       0.276500
     50 HBC         -5.7860    -9.4920     7.1830 hc         1 5S8       0.137000
     51 HBD         -5.7440   -11.9110     6.1580 hc         1 5S8       0.081000
     52 HBE         -4.0190   -11.9020     6.6000 hc         1 5S8       0.081000
     53 HBF         -4.1320    -9.6770     4.6570 ha         1 5S8       0.072500
     54 HBG         -5.7000   -10.5210     4.6850 ha         1 5S8       0.072500
     55 HBH         -6.7670   -11.3440     8.5630 ha         1 5S8       0.104000
     56 HBI         -6.6910    -9.6080     8.9550 ha         1 5S8       0.104000
     57 HBJ         -4.4280   -11.7940     8.7040 hc         1 5S8       0.063500
     58 HBK         -5.9280   -12.6000     8.1810 hc         1 5S8       0.063500
     59 HAL         -1.0310    -3.7360     5.7140 ha         1 5S8       0.105000
     60 CAP          2.3690     0.1180     8.1760 c3         1 5S8       0.050000
@<TRIPOS>BOND
     1     1     2 1   
     2     1     4 1   
     3     1    33 1   
     4     2     3 1   
     5     2    20 1   
     6     3     6 1   
     7     3    34 1   
     8     4     5 1   
     9     4    35 1   
    10     5     6 1   
    11     5    17 1   
    12     6    36 1   
    13     7     8 1   
    14     7    10 1   
    15     7    59 1   
    16     8     9 1   
    17     8    24 1   
    18     9    12 1   
    19     9    23 1   
    20    10    11 1   
    21    10    13 1   
    22    11    12 1   
    23    11    40 1   
    24    12    41 1   
    25    13    14 1   
    26    13    25 1   
    27    14    15 1   
    28    14    19 1   
    29    15    42 1   
    30    15    43 1   
    31    15    44 1   
    32    16    18 1   
    33    16    19 1   
    34    16    25 1   
    35    17    24 1   
    36    17    45 1   
    37    18    26 1   
    38    18    46 1   
    39    20    47 1   
    40    21    24 1   
    41    21    48 1   
    42    22    24 1   
    43    22    49 1   
    44    23    60 1   
    45    26    27 1   
    46    26    32 1   
    47    27    28 1   
    48    27    29 1   
    49    27    50 1   
    50    28    31 1   
    51    28    51 1   
    52    28    52 1   
    53    29    53 1   
    54    29    54 1   
    55    30    31 1   
    56    30    55 1   
    57    30    56 1   
    58    31    57 1   
    59    31    58 1   
    60    37    60 1   
    61    38    60 1   
    62    39    60 1   
@<TRIPOS>SUBSTRUCTURE
     1 5S8         1 TEMP              0 ****  ****    0 ROOT
