@<TRIPOS>MOLECULE
5S9
   26    27     1     0     0
SMALL
bcc


@<TRIPOS>ATOM
      1 FAD          0.0000     0.0000     0.0000 f          1 5S9      -0.127900
      2 CAN          1.3510     0.0000     0.0000 ca         1 5S9       0.089900
      3 CAI          2.0430     0.0000     1.1970 ca         1 5S9      -0.148000
      4 CAM          3.4280     0.0000     1.1960 ca         1 5S9       0.115900
      5 FAC          4.1030     0.0010     2.3660 f          1 5S9      -0.123900
      6 CAG          4.1220    -0.0000    -0.0010 ca         1 5S9      -0.121000
      7 CAH          3.4340    -0.0010    -1.2000 ca         1 5S9      -0.069000
      8 CAO          2.0470    -0.0060    -1.2040 ca         1 5S9      -0.121400
      9 NAK          1.3490    -0.0070    -2.4180 ns         1 5S9      -0.066100
     10 CAL          1.9000     0.5540    -3.5130 c          1 5S9       0.635700
     11 OAB          3.0230     1.0190    -3.4580 o          1 5S9      -0.622100
     12 CAP          1.1430     0.6050    -4.7740 cc         1 5S9      -0.409900
     13 CAF          1.6140     1.0150    -6.0090 cd         1 5S9      -0.188300
     14 CAE          0.5310     0.8820    -6.8810 cd         1 5S9       0.321200
     15 NAJ         -0.4860     0.4280    -6.1910 nc         1 5S9      -0.630800
     16 NAQ         -0.1630     0.2500    -4.9610 na         1 5S9       0.606400
     17 CAA         -1.0600    -0.2480    -3.9170 c3         1 5S9      -0.023400
     18 H1           1.5020     0.0010     2.1350 ha         1 5S9       0.135000
     19 H2           5.2050     0.0020     0.0010 ha         1 5S9       0.126000
     20 H3           3.9790    -0.0040    -2.1370 ha         1 5S9       0.166000
     21 H4           0.4590    -0.4600    -2.4830 hn         1 5S9       0.188500
     22 H5           2.6110     1.3640    -6.2490 ha         1 5S9       0.149000
     23 H6           0.5310     1.1150    -7.9380 h4         1 5S9       0.011100
     24 H7          -0.7060    -1.2090    -3.5640 h1         1 5S9       0.035700
     25 H8          -2.0590    -0.3580    -4.3210 h1         1 5S9       0.035700
     26 H9          -1.0800     0.4550    -3.0920 h1         1 5S9       0.035700
@<TRIPOS>BOND
     1     1     2 1   
     2     2     3 ar  
     3     2     8 ar  
     4     3     4 ar  
     5     3    18 1   
     6     4     5 1   
     7     4     6 ar  
     8     6     7 ar  
     9     6    19 1   
    10     7     8 ar  
    11     7    20 1   
    12     8     9 1   
    13     9    10 1   
    14     9    21 1   
    15    10    11 2   
    16    10    12 1   
    17    12    13 2   
    18    12    16 1   
    19    13    14 1   
    20    13    22 1   
    21    14    15 2   
    22    14    23 1   
    23    15    16 1   
    24    16    17 1   
    25    17    24 1   
    26    17    25 1   
    27    17    26 1   
@<TRIPOS>SUBSTRUCTURE
     1 5S9         1 TEMP              0 ****  ****    0 ROOT
