@<TRIPOS>MOLECULE
molecule
   26    27     1     0     0
SMALL
bcc


@<TRIPOS>ATOM
      1 FAD          0.0000     0.0000     0.0000 f          1 5S9      -0.142900
      2 CAN          1.3510     0.0000     0.0000 ca         1 5S9       0.119900
      3 CAI          2.0430     0.0000     1.1970 ca         1 5S9      -0.192000
      4 CAM          3.4280     0.0000     1.1960 ca         1 5S9       0.142900
      5 FAC          4.1030     0.0010     2.3660 f          1 5S9      -0.133900
      6 CAG          4.1220    -0.0000    -0.0010 ca         1 5S9      -0.163000
      7 CAH          3.4340    -0.0010    -1.2000 ca         1 5S9      -0.087000
      8 CAO          2.0470    -0.0060    -1.2040 ca         1 5S9       0.006600
      9 NAK          1.3490    -0.0070    -2.4180 ns         1 5S9      -0.481100
     10 CAL          1.9000     0.5540    -3.5130 c          1 5S9       0.709700
     11 OAB          3.0230     1.0190    -3.4580 o          1 5S9      -0.582100
     12 CAP          1.1430     0.6050    -4.7740 cc         1 5S9      -0.214900
     13 CAF          1.6140     1.0150    -6.0090 cd         1 5S9      -0.225300
     14 CAE          0.5310     0.8820    -6.8810 cd         1 5S9       0.292200
     15 NAJ         -0.4860     0.4280    -6.1910 nc         1 5S9      -0.506800
     16 NAQ         -0.1630     0.2500    -4.9610 na         1 5S9       0.143400
     17 CAA         -1.0600    -0.2480    -3.9170 c3         1 5S9       0.039600
     18 H1           1.5020     0.0010     2.1350 ha         1 5S9       0.162000
     19 H2           5.2050     0.0020     0.0010 ha         1 5S9       0.156000
     20 H3           3.9790    -0.0040    -2.1370 ha         1 5S9       0.189000
     21 H4           0.4590    -0.4600    -2.4830 hn         1 5S9       0.333500
     22 H5           2.6110     1.3640    -6.2490 ha         1 5S9       0.179000
     23 H6           0.5310     1.1150    -7.9380 h4         1 5S9       0.055100
     24 H7          -0.7060    -1.2090    -3.5640 h1         1 5S9       0.067033
     25 H8          -2.0590    -0.3580    -4.3210 h1         1 5S9       0.067033
     26 H9          -1.0800     0.4550    -3.0920 h1         1 5S9       0.067033
@<TRIPOS>BOND
     1    15    14 2   
     2    15    16 1   
     3    17    16 1   
     4    14    13 1   
     5    16    12 1   
     6    13    12 2   
     7    12    10 1   
     8    11    10 2   
     9    10     9 1   
    10     9     8 1   
    11     7     8 ar  
    12     7     6 ar  
    13     8     2 ar  
    14     6     4 ar  
    15     2     1 1   
    16     2     3 ar  
    17     4     3 ar  
    18     4     5 1   
    19     3    18 1   
    20     6    19 1   
    21     7    20 1   
    22     9    21 1   
    23    13    22 1   
    24    14    23 1   
    25    17    24 1   
    26    17    25 1   
    27    17    26 1   
@<TRIPOS>SUBSTRUCTURE
     1 5S9         1 TEMP              0 ****  ****    0 ROOT
