@<TRIPOS>MOLECULE
molecule
   31    33     1     0     0
SMALL
bcc


@<TRIPOS>ATOM
      1 CAA          0.0000     0.0000     0.0000 c3         1 5SB      -0.170100
      2 CAN          1.5070     0.0000     0.0000 c          1 5SB       0.657100
      3 OAB          2.1140     0.0000     1.0500 o          1 5SB      -0.603100
      4 NAL          2.1810    -0.0010    -1.1680 ns         1 5SB      -0.462100
      5 CAP          3.5750     0.0940    -1.1700 ca         1 5SB       0.005300
      6 CAE          4.3090    -0.4980    -0.1640 ca         1 5SB      -0.124000
      7 CAF          5.6950    -0.4160    -0.1470 ca         1 5SB      -0.106000
      8 CAS          4.2340     0.7930    -2.2030 ca         1 5SB       0.400600
      9 NAK          3.5430     1.3710    -3.1910 nb         1 5SB      -0.694000
     10 CAD          4.1480     2.0220    -4.1550 ca         1 5SB       0.429200
     11 CAC          5.5340     2.1430    -4.2000 ca         1 5SB      -0.261300
     12 CAG          6.3000     1.5740    -3.2200 ca         1 5SB      -0.076000
     13 CAR          5.6470     0.8780    -2.1890 ca         1 5SB      -0.131300
     14 CAQ          6.3740     0.2650    -1.1420 ca         1 5SB      -0.001000
     15 CAO          7.8540     0.3480    -1.1140 cc         1 5SB      -0.268300
     16 CAH          8.6220     0.7160    -0.0470 cd         1 5SB      -0.097300
     17 NAJ          9.9120     0.6590    -0.4340 na         1 5SB      -0.041600
     18 NAM          9.9510     0.2470    -1.7710 nd         1 5SB      -0.511800
     19 CAI          8.7260     0.0530    -2.1820 cc         1 5SB       0.342200
     20 H1          -0.3610    -0.9090    -0.4660 hc         1 5SB       0.063700
     21 H2          -0.3610     0.8580    -0.5540 hc         1 5SB       0.063700
     22 H3          -0.3610     0.0510     1.0200 hc         1 5SB       0.063700
     23 H4           1.6860    -0.1100    -2.0310 hn         1 5SB       0.338500
     24 H5           3.7970    -1.0370     0.6240 ha         1 5SB       0.171000
     25 H6           6.2500    -0.8900     0.6530 ha         1 5SB       0.137000
     26 H7           3.5540     2.4780    -4.9380 h4         1 5SB       0.020100
     27 H8           6.0060     2.6880    -5.0090 ha         1 5SB       0.138000
     28 H9           7.3800     1.6580    -3.2390 ha         1 5SB       0.151000
     29 H10          8.2610     1.0020     0.9340 h4         1 5SB       0.178000
     30 H11         10.7050     0.8770     0.1360 hn         1 5SB       0.331700
     31 H12          8.4310    -0.2700    -3.1730 h4         1 5SB       0.054100
@<TRIPOS>BOND
     1     3     2 2
     2     2     1 1
     3     2     4 1
     4     6     7 ar
     5     6     5 ar
     6     7    14 ar
     7    16    17 1
     8    16    15 2
     9     4     5 1
    10     5     8 ar
    11    17    18 1
    12    14    15 1
    13    14    13 ar
    14    15    19 1
    15     8    13 ar
    16     8     9 ar
    17    18    19 2
    18    13    12 ar
    19     9    10 ar
    20    12    11 ar
    21    10    11 ar
    22     1    20 1
    23     1    21 1
    24     1    22 1
    25     4    23 1
    26     6    24 1
    27     7    25 1
    28    10    26 1
    29    11    27 1
    30    12    28 1
    31    16    29 1
    32    17    30 1
    33    19    31 1
@<TRIPOS>SUBSTRUCTURE
     1 5SB         1 TEMP              0 ****  ****    0 ROOT
