@<TRIPOS>MOLECULE
molecule
   42    45     1     0     0
SMALL
bcc


@<TRIPOS>ATOM
      1 C01          0.0000     0.0000     0.0000 cc         1 5SC      -0.292900
      2 C02          1.3900     0.0000     0.0000 cd         1 5SC       0.470500
      3 N03          1.7870     0.0000     1.3130 na         1 5SC       0.002200
      4 N04          0.6330     0.0000     2.1060 nc         1 5SC      -0.593100
      5 C05         -0.4210     0.0060     1.3220 cd         1 5SC       0.456500
      6 N06          2.2930    -0.0010    -0.9870 nd         1 5SC      -0.701000
      7 C07          3.5900    -0.0010    -0.7220 cc         1 5SC       0.576800
      8 C08          4.0380    -0.0020     0.6100 cd         1 5SC      -0.413300
      9 C09          3.1230    -0.0000     1.6240 cc         1 5SC       0.330300
     10 N10          3.5360     0.0010     2.9390 nu         1 5SC      -0.803600
     11 C11          4.5710    -0.0020    -1.8330 ca         1 5SC      -0.154500
     12 C12          4.9650    -0.0010     3.2590 c3         1 5SC       0.295100
     13 C13          5.1460    -0.0000     4.7550 ca         1 5SC      -0.136300
     14 C14          5.2240     1.1920     5.4500 ca         1 5SC      -0.081300
     15 N15          5.3770     1.2000     6.7610 na         1 5SC       0.412300
     16 C16          5.4610     0.0820     7.4560 ca         1 5SC      -0.087300
     17 C17          5.3910    -1.1480     6.8280 ca         1 5SC      -0.142000
     18 C18          5.2300    -1.1960     5.4520 ca         1 5SC      -0.097000
     19 C19          5.4140     1.0920    -2.0240 ca         1 5SC      -0.057300
     20 C20          6.3260     1.0860    -3.0590 ca         1 5SC      -0.131000
     21 C21          6.4060    -0.0040    -3.9070 ca         1 5SC      -0.112000
     22 C22          5.5730    -1.0930    -3.7220 ca         1 5SC      -0.137000
     23 C23          4.6600    -1.1010    -2.6870 ca         1 5SC      -0.086000
     24 Br24        -1.1160     0.0000    -1.5270 br         1 5SC      -0.034700
     25 C25          5.3270     2.2810    -1.1000 c3         1 5SC      -0.050800
     26 O26          5.4550     2.4410     7.4370 o          1 5SC      -0.650700
     27 H05         -1.4520     0.0140     1.6540 h4         1 5SC       0.071800
     28 H08          5.0990    -0.0020     0.8310 ha         1 5SC       0.161000
     29 HN10         2.8580     0.0190     3.6760 hn         1 5SC       0.470800
     30 H121         5.4280    -0.8860     2.8400 h1         1 5SC       0.061200
     31 H122         5.4300     0.8830     2.8390 h1         1 5SC       0.061200
     32 H14          5.1600     2.1300     4.9120 h4         1 5SC       0.196000
     33 H16          5.5870     0.1280     8.5310 h4         1 5SC       0.196000
     34 H17          5.4600    -2.0630     7.4050 ha         1 5SC       0.163000
     35 H18          5.1710    -2.1450     4.9340 ha         1 5SC       0.156000
     36 H20          6.9820     1.9360    -3.2070 ha         1 5SC       0.135000
     37 H21          7.1220    -0.0040    -4.7190 ha         1 5SC       0.132000
     38 H22          5.6420    -1.9440    -4.3880 ha         1 5SC       0.134000
     39 H23          4.0090    -1.9540    -2.5450 ha         1 5SC       0.143000
     40 H251         5.6780     3.1660    -1.6170 hc         1 5SC       0.046033
     41 H252         4.2990     2.4260    -0.7930 hc         1 5SC       0.046033
     42 H253         5.9430     2.1050    -0.2260 hc         1 5SC       0.046033
@<TRIPOS>BOND
     1    26    15 2   
     2    15    16 1   
     3    15    14 2   
     4    16    17 ar  
     5    14    13 ar  
     6    17    18 ar  
     7    13    18 ar  
     8    13    12 1   
     9     4     5 2   
    10     4     3 1   
    11    10    12 1   
    12    10     9 1   
    13     5     1 1   
    14     3     9 1   
    15     3     2 1   
    16     9     8 2   
    17     1     2 2   
    18     1    24 1   
    19     2     6 1   
    20     8     7 1   
    21     7     6 2   
    22     7    11 1   
    23    23    22 ar  
    24    23    11 ar  
    25    22    21 ar  
    26    11    19 ar  
    27    21    20 ar  
    28    19    20 ar  
    29    19    25 1   
    30     5    27 1   
    31     8    28 1   
    32    10    29 1   
    33    12    30 1   
    34    12    31 1   
    35    14    32 1   
    36    16    33 1   
    37    17    34 1   
    38    18    35 1   
    39    20    36 1   
    40    21    37 1   
    41    22    38 1   
    42    23    39 1   
    43    25    40 1   
    44    25    41 1   
    45    25    42 1   
@<TRIPOS>SUBSTRUCTURE
     1 5SC         1 TEMP              0 ****  ****    0 ROOT
