@<TRIPOS>MOLECULE
5SC
   42    45     1     0     0
SMALL
bcc


@<TRIPOS>ATOM
      1 C01          0.0000     0.0000     0.0000 cc         1 5SC      -0.272900
      2 C02          1.3900     0.0000     0.0000 cd         1 5SC       0.258500
      3 N03          1.7870     0.0000     1.3130 na         1 5SC       0.488200
      4 N04          0.6330     0.0000     2.1060 nd         1 5SC      -0.761100
      5 C05         -0.4210     0.0060     1.3220 cc         1 5SC       0.523500
      6 N06          2.2930    -0.0010    -0.9870 nd         1 5SC      -0.576000
      7 C07          3.5900    -0.0010    -0.7220 cc         1 5SC       0.519800
      8 C08          4.0380    -0.0020     0.6100 cc         1 5SC      -0.382300
      9 C09          3.1230    -0.0000     1.6240 cd         1 5SC       0.001300
     10 N10          3.5360     0.0010     2.9390 nu         1 5SC      -0.383600
     11 C11          4.5710    -0.0020    -1.8330 ca         1 5SC      -0.158500
     12 C12          4.9650    -0.0010     3.2590 c3         1 5SC       0.224100
     13 C13          5.1460    -0.0000     4.7550 ca         1 5SC      -0.068300
     14 C14          5.2240     1.1920     5.4500 ca         1 5SC      -0.350300
     15 N15          5.3770     1.2000     6.7610 na         1 5SC       0.806600
     16 C16          5.4610     0.0820     7.4560 ca         1 5SC      -0.356300
     17 C17          5.3910    -1.1480     6.8280 ca         1 5SC      -0.035000
     18 C18          5.2300    -1.1960     5.4520 ca         1 5SC      -0.127000
     19 C19          5.4140     1.0920    -2.0240 ca         1 5SC      -0.066300
     20 C20          6.3260     1.0860    -3.0590 ca         1 5SC      -0.105000
     21 C21          6.4060    -0.0040    -3.9070 ca         1 5SC      -0.087000
     22 C22          5.5730    -1.0930    -3.7220 ca         1 5SC      -0.111000
     23 C23          4.6600    -1.1010    -2.6870 ca         1 5SC      -0.062000
     24 Br24        -1.1160     0.0000    -1.5270 br         1 5SC      -0.042700
     25 C25          5.3270     2.2810    -1.1000 c3         1 5SC       0.055200
     26 O26          5.4550     2.4410     7.4370 o          1 5SC      -0.530000
     27 H05         -1.4520     0.0140     1.6540 h4         1 5SC       0.019800
     28 H08          5.0990    -0.0020     0.8310 ha         1 5SC       0.148000
     29 HN10         2.8580     0.0190     3.6760 hn         1 5SC       0.319800
     30 H121         5.4280    -0.8860     2.8400 h1         1 5SC       0.030700
     31 H122         5.4300     0.8830     2.8390 h1         1 5SC       0.030700
     32 H14          5.1600     2.1300     4.9120 h4         1 5SC       0.170000
     33 H16          5.5870     0.1280     8.5310 h4         1 5SC       0.169000
     34 H17          5.4600    -2.0630     7.4050 ha         1 5SC       0.124000
     35 H18          5.1710    -2.1450     4.9340 ha         1 5SC       0.128000
     36 H20          6.9820     1.9360    -3.2070 ha         1 5SC       0.108000
     37 H21          7.1220    -0.0040    -4.7190 ha         1 5SC       0.102000
     38 H22          5.6420    -1.9440    -4.3880 ha         1 5SC       0.105000
     39 H23          4.0090    -1.9540    -2.5450 ha         1 5SC       0.111000
     40 H251         5.6780     3.1660    -1.6170 hc         1 5SC       0.010367
     41 H252         4.2990     2.4260    -0.7930 hc         1 5SC       0.010367
     42 H253         5.9430     2.1050    -0.2260 hc         1 5SC       0.010367
@<TRIPOS>BOND
     1     1     2 2   
     2     1     5 1   
     3     1    24 1   
     4     2     3 1   
     5     2     6 1   
     6     3     4 1   
     7     3     9 1   
     8     4     5 2   
     9     5    27 1   
    10     6     7 2   
    11     7     8 1   
    12     7    11 1   
    13     8     9 2   
    14     8    28 1   
    15     9    10 1   
    16    10    12 1   
    17    10    29 1   
    18    11    19 ar  
    19    11    23 ar  
    20    12    13 1   
    21    12    30 1   
    22    12    31 1   
    23    13    14 ar  
    24    13    18 ar  
    25    14    15 2   
    26    14    32 1   
    27    15    16 1   
    28    15    26 1   
    29    16    17 ar  
    30    16    33 1   
    31    17    18 ar  
    32    17    34 1   
    33    18    35 1   
    34    19    20 ar  
    35    19    25 1   
    36    20    21 ar  
    37    20    36 1   
    38    21    22 ar  
    39    21    37 1   
    40    22    23 ar  
    41    22    38 1   
    42    23    39 1   
    43    25    40 1   
    44    25    41 1   
    45    25    42 1   
@<TRIPOS>SUBSTRUCTURE
     1 5SC         1 TEMP              0 ****  ****    0 ROOT
