@<TRIPOS>MOLECULE
5SD
   49    52     1     0     0
SMALL
bcc


@<TRIPOS>ATOM
      1 C1          0.0710   -0.0210   -0.0070 c3        1 5SD     -0.068400
      2 C2          1.5460    0.2580    0.1800 c3        1 5SD     -0.181400
      3 C3          1.9670    0.2430    1.6210 c         1 5SD      0.570100
      4 O3          2.7320    1.0930    2.0880 o         1 5SD     -0.533100
      5 C4          1.4340   -0.8890    2.4510 c3        1 5SD     -0.179400
      6 C5         -0.0540   -1.0910    2.2280 c3        1 5SD     -0.051700
      7 C6         -0.5670   -2.2430    3.0760 c3        1 5SD     -0.073400
      8 C7         -2.0700   -2.3600    2.9570 c3        1 5SD     -0.074400
      9 C8         -2.4960   -2.5140    1.5060 c3        1 5SD     -0.046700
     10 C9         -1.9500   -1.3580    0.6470 c3        1 5SD     -0.049700
     11 C10        -0.4110   -1.2720    0.7390 c3        1 5SD     -0.039000
     12 C11        -2.4500   -1.4270   -0.7920 c3        1 5SD     -0.076400
     13 C12        -3.9570   -1.5960   -0.9220 c3        1 5SD     -0.056400
     14 C13        -4.4370   -2.7650   -0.0820 c3        1 5SD     -0.152000
     15 C14        -4.0050   -2.4960    1.3780 c3        1 5SD     -0.064700
     16 C15        -4.8580   -3.4480    2.2090 c3        1 5SD     -0.072400
     17 C16        -6.2000   -3.4860    1.4710 c3        1 5SD     -0.188400
     18 C17        -5.9440   -2.9380    0.0800 c         1 5SD      0.577100
     19 O17        -6.8040   -2.6950   -0.7610 o         1 5SD     -0.519100
     20 C18        -3.9220   -4.0810   -0.6500 c3        1 5SD     -0.083100
     21 C19         0.2540   -2.4980    0.1360 c3        1 5SD     -0.086100
     22 H1C1       -0.1240   -0.1450   -1.1050 hc        1 5SD      0.049200
     23 H1C2       -0.5220    0.8640    0.3440 hc        1 5SD      0.049200
     24 H2C1        1.7980    1.2530   -0.2750 hc        1 5SD      0.070200
     25 H2C2        2.1550   -0.5200   -0.3570 hc        1 5SD      0.070200
     26 H4C1        2.0030   -1.8190    2.1870 hc        1 5SD      0.070700
     27 H4C2        1.6230   -0.6810    3.5390 hc        1 5SD      0.070700
     28 H5         -0.5770   -0.1520    2.5760 hc        1 5SD      0.053700
     29 H6C1       -0.2890   -2.0680    4.1480 hc        1 5SD      0.044700
     30 H6C2       -0.0790   -3.2010    2.7560 hc        1 5SD      0.044700
     31 H7C1       -2.4300   -3.2470    3.5420 hc        1 5SD      0.043200
     32 H7C2       -2.5550   -1.4490    3.3970 hc        1 5SD      0.043200
     33 H8         -2.0990   -3.4920    1.1200 hc        1 5SD      0.057700
     34 H9         -2.3550   -0.4000    1.0910 hc        1 5SD      0.047700
     35 H111       -2.1660   -0.4770   -1.3190 hc        1 5SD      0.043700
     36 H112       -1.9400   -2.2700   -1.3280 hc        1 5SD      0.043700
     37 H121       -4.4760   -0.6590   -0.5890 hc        1 5SD      0.052200
     38 H122       -4.2230   -1.7650   -1.9970 hc        1 5SD      0.052200
     39 H14        -4.3460   -1.4500    1.6420 hc        1 5SD      0.051700
     40 H151       -4.3970   -4.4650    2.2540 hc        1 5SD      0.049700
     41 H152       -4.9770   -3.0780    3.2550 hc        1 5SD      0.049700
     42 H161       -6.6010   -4.5270    1.4000 hc        1 5SD      0.074700
     43 H162       -6.9650   -2.8550    1.9890 hc        1 5SD      0.074700
     44 H181       -4.1910   -4.9290    0.0250 hc        1 5SD      0.043700
     45 H182       -4.3820   -4.2580   -1.6530 hc        1 5SD      0.043700
     46 H183       -2.8130   -4.0640   -0.7690 hc        1 5SD      0.043700
     47 H191       -0.1440   -3.4380    0.5860 hc        1 5SD      0.037033
     48 H192        0.0780   -2.5330   -0.9670 hc        1 5SD      0.037033
     49 H193        1.3570   -2.4720    0.3060 hc        1 5SD      0.037033
@<TRIPOS>BOND
     1    1    2 1   
     2    1   11 1   
     3    1   22 1   
     4    1   23 1   
     5    2    3 1   
     6    2   24 1   
     7    2   25 1   
     8    3    4 2   
     9    3    5 1   
    10    5    6 1   
    11    5   26 1   
    12    5   27 1   
    13    6    7 1   
    14    6   11 1   
    15    6   28 1   
    16    7    8 1   
    17    7   29 1   
    18    7   30 1   
    19    8    9 1   
    20    8   31 1   
    21    8   32 1   
    22    9   10 1   
    23    9   15 1   
    24    9   33 1   
    25   10   11 1   
    26   10   12 1   
    27   10   34 1   
    28   11   21 1   
    29   12   13 1   
    30   12   35 1   
    31   12   36 1   
    32   13   14 1   
    33   13   37 1   
    34   13   38 1   
    35   14   15 1   
    36   14   18 1   
    37   14   20 1   
    38   15   16 1   
    39   15   39 1   
    40   16   17 1   
    41   16   40 1   
    42   16   41 1   
    43   17   18 1   
    44   17   42 1   
    45   17   43 1   
    46   18   19 2   
    47   20   44 1   
    48   20   45 1   
    49   20   46 1   
    50   21   47 1   
    51   21   48 1   
    52   21   49 1   
@<TRIPOS>SUBSTRUCTURE
     1 5SD         1 TEMP              0 ****  ****    0 ROOT
