@<TRIPOS>MOLECULE
molecule
   49    52     1     0     0
SMALL
bcc


@<TRIPOS>ATOM
      1 C1           0.0000     0.0000     0.0000 c3         1 5SD      -0.069400
      2 C2           1.5310     0.0000     0.0000 c3         1 5SD      -0.182400
      3 C3           2.0070     0.0000     1.4360 c          1 5SD       0.568100
      4 O3           2.8110     0.8140     1.8240 o          1 5SD      -0.523100
      5 C4           1.4470    -1.0450     2.3720 c3         1 5SD      -0.180400
      6 C5          -0.0840    -1.0230     2.2850 c3         1 5SD      -0.051700
      7 C6          -0.6380    -2.1800     3.1190 c3         1 5SD      -0.077400
      8 C7          -2.1630    -2.2070     3.0230 c3         1 5SD      -0.075400
      9 C8          -2.5720    -2.3980     1.5620 c3         1 5SD      -0.061700
     10 C9          -2.0410    -1.2170     0.7390 c3         1 5SD      -0.051700
     11 C10         -0.5150    -1.1820     0.8260 c3         1 5SD      -0.059000
     12 C11         -2.4580    -1.3170    -0.7240 c3         1 5SD      -0.086400
     13 C12         -3.9830    -1.4610    -0.8640 c3         1 5SD      -0.055400
     14 C13         -4.3940    -2.6880    -0.0750 c3         1 5SD      -0.180000
     15 C14         -4.0850    -2.4100     1.4370 c3         1 5SD      -0.064700
     16 C15         -4.8110    -3.5830     2.1090 c3         1 5SD      -0.074400
     17 C16         -6.1300    -3.6740     1.2920 c3         1 5SD      -0.192400
     18 C17         -5.8540    -3.0320    -0.0630 c          1 5SD       0.590100
     19 O17         -6.6470    -2.8480    -0.9550 o          1 5SD      -0.507100
     20 C18         -3.5860    -3.8980    -0.5490 c3         1 5SD      -0.081100
     21 C19          0.0580    -2.4840     0.2660 c3         1 5SD      -0.092100
     22 H1C1        -0.3590     0.9250     0.4340 hc         1 5SD       0.052200
     23 H1C2        -0.3590    -0.0900    -1.0180 hc         1 5SD       0.052200
     24 H2C1         1.8940     0.8870    -0.5040 hc         1 5SD       0.068700
     25 H2C2         1.8950    -0.8870    -0.5040 hc         1 5SD       0.068700
     26 H4C1         1.7550    -0.8240     3.3870 hc         1 5SD       0.069700
     27 H4C2         1.8120    -2.0230     2.0820 hc         1 5SD       0.069700
     28 H5          -0.4570    -0.0830     2.6740 hc         1 5SD       0.059700
     29 H6C1        -0.3460    -2.0470     4.1540 hc         1 5SD       0.044700
     30 H6C2        -0.2380    -3.1150     2.7450 hc         1 5SD       0.044700
     31 H7C1        -2.5470    -3.0290     3.6150 hc         1 5SD       0.044700
     32 H7C2        -2.5650    -1.2710     3.3900 hc         1 5SD       0.044700
     33 H8          -2.1630    -3.3260     1.1820 hc         1 5SD       0.065700
     34 H9          -2.4370    -0.2970     1.1530 hc         1 5SD       0.053700
     35 H111        -1.9800    -2.1800    -1.1700 hc         1 5SD       0.048700
     36 H112        -2.1400    -0.4210    -1.2430 hc         1 5SD       0.048700
     37 H121        -4.4730    -0.5840    -0.4610 hc         1 5SD       0.053200
     38 H122        -4.2450    -1.5910    -1.9070 hc         1 5SD       0.053200
     39 H14         -4.5090    -1.4630     1.7480 hc         1 5SD       0.064700
     40 H151        -4.2360    -4.4960     2.0110 hc         1 5SD       0.051700
     41 H152        -5.0190    -3.3590     3.1480 hc         1 5SD       0.051700
     42 H161        -6.4090    -4.7120     1.1590 hc         1 5SD       0.071200
     43 H162        -6.9180    -3.1350     1.8030 hc         1 5SD       0.071200
     44 H181        -3.1190    -4.3770     0.3030 hc         1 5SD       0.044367
     45 H182        -2.8210    -3.5720    -1.2440 hc         1 5SD       0.044367
     46 H183        -4.2450    -4.6020    -1.0430 hc         1 5SD       0.044367
     47 H191         1.1350    -2.4860     0.3850 hc         1 5SD       0.038700
     48 H192        -0.3650    -3.3250     0.8010 hc         1 5SD       0.038700
     49 H193        -0.1880    -2.5640    -0.7860 hc         1 5SD       0.038700
@<TRIPOS>BOND
     1     1     2 1
     2     1    11 1
     3     1    22 1
     4     1    23 1
     5     2     3 1
     6     2    24 1
     7     2    25 1
     8     3     4 2
     9     3     5 1
    10     5     6 1
    11     5    26 1
    12     5    27 1
    13     6     7 1
    14     6    11 1
    15     6    28 1
    16     7     8 1
    17     7    29 1
    18     7    30 1
    19     8     9 1
    20     8    31 1
    21     8    32 1
    22     9    10 1
    23     9    15 1
    24     9    33 1
    25    10    11 1
    26    10    12 1
    27    10    34 1
    28    11    21 1
    29    12    13 1
    30    12    35 1
    31    12    36 1
    32    13    14 1
    33    13    37 1
    34    13    38 1
    35    14    15 1
    36    14    18 1
    37    14    20 1
    38    15    16 1
    39    15    39 1
    40    16    17 1
    41    16    40 1
    42    16    41 1
    43    17    18 1
    44    17    42 1
    45    17    43 1
    46    18    19 2
    47    20    44 1
    48    20    45 1
    49    20    46 1
    50    21    47 1
    51    21    48 1
    52    21    49 1
@<TRIPOS>SUBSTRUCTURE
     1 5SD         1 TEMP              0 ****  ****    0 ROOT
