@<TRIPOS>MOLECULE
molecule
   63    66     1     0     0
SMALL
bcc


@<TRIPOS>ATOM
      1 C1           0.0000     0.0000     0.0000 c3         1 5SF       0.160500
      2 C2           1.5300     0.0000     0.0000 c3         1 5SF      -0.105600
      3 C3          -1.8370    -0.5790     1.4670 c3         1 5SF       0.124800
      4 C7          -6.4560     1.0430     3.9140 ca         1 5SF      -0.150300
      5 C8          -7.0120     1.3220     2.6530 ca         1 5SF       0.284300
      6 C9          -6.4240     0.7590     1.4910 ca         1 5SF       0.318300
      7 C10         -5.2960    -0.0670     1.6200 ca         1 5SF      -0.169300
      8 C11         -8.0120     1.8030     0.1960 ca         1 5SF       0.419500
      9 C12         -8.5910     2.3580     1.3520 ca         1 5SF       0.305900
     10 C13         -8.5970     2.0960    -1.1340 cc         1 5SF      -0.378800
     11 C14         -8.1300     1.6150    -2.3740 cd         1 5SF       0.377200
     12 C15         -9.6900     2.8770    -1.3820 cd         1 5SF      -0.090300
     13 C19         -5.2440    -4.4060     3.5980 ca         1 5SF       0.213100
     14 C20         -4.1310    -5.2350     3.6360 ca         1 5SF      -0.360000
     15 C21         -2.8620    -4.7030     3.4620 ca         1 5SF       0.213100
     16 C22         -2.7030    -3.3420     3.2500 ca         1 5SF      -0.267000
     17 C24         -6.5730    -6.3380     3.9840 c3         1 5SF       0.130700
     18 O1          -6.4860    -4.9280     3.7690 os         1 5SF      -0.325400
     19 C18         -5.0860    -3.0440     3.3910 ca         1 5SF      -0.267000
     20 O           -1.7740    -5.5160     3.5000 os         1 5SF      -0.325400
     21 C23         -2.0110    -6.9070     3.7230 c3         1 5SF       0.130700
     22 C17         -3.8160    -2.5120     3.2110 ca         1 5SF       0.262600
     23 N1          -3.6560    -1.1390     3.0030 nh         1 5SF      -0.616400
     24 C4          -2.3130    -0.5620     2.9210 c3         1 5SF       0.239800
     25 N           -0.4900     0.0000     1.3850 n7         1 5SF      -0.816200
     26 C           -0.5090     1.2500    -0.7210 c3         1 5SF      -0.105600
     27 C5          -4.7770    -0.3190     2.8710 ca         1 5SF       0.161600
     28 N2          -6.9480     1.0220     0.2890 nb         1 5SF      -0.656000
     29 N5          -9.8910     2.8850    -2.7130 na         1 5SF       0.073400
     30 N4          -8.9050     2.0910    -3.3120 nc         1 5SF      -0.515800
     31 N3          -8.0870     2.1100     2.5360 nb         1 5SF      -0.637000
     32 C6          -5.3640     0.2410     4.0130 ca         1 5SF      -0.129000
     33 H3          -0.3610    -0.8840    -0.5110 h1         1 5SF       0.060700
     34 H4           1.8910     0.8870     0.5070 hc         1 5SF       0.038367
     35 H5           1.8910    -0.0050    -1.0210 hc         1 5SF       0.038367
     36 H6           1.8910    -0.8820     0.5150 hc         1 5SF       0.038367
     37 H9          -1.8140    -1.6010     1.1060 h1         1 5SF       0.043700
     38 H8          -2.5180     0.0030     0.8570 h1         1 5SF       0.043700
     39 H13         -6.8990     1.4680     4.8070 ha         1 5SF       0.152000
     40 H14         -4.9170    -0.6040     0.7580 ha         1 5SF       0.161000
     41 H15         -9.4600     3.0000     1.2620 h4         1 5SF       0.026100
     42 H16         -7.2750     0.9660    -2.5240 h4         1 5SF       0.067100
     43 H17        -10.2230     3.4770    -0.6540 h4         1 5SF       0.172000
     44 H19        -11.9210     3.2070    -3.1070 h1         1 5SF       0.057700
     45 H20        -10.9080     4.6550    -3.1740 h1         1 5SF       0.057700
     46 H18        -10.8420     3.4680    -4.4840 h1         1 5SF       0.057700
     47 H22         -4.2540    -6.2980     3.8020 ha         1 5SF       0.137000
     48 H23         -1.7120    -2.9280     3.1120 ha         1 5SF       0.152500
     49 H28         -6.0190    -6.6020     4.8760 h1         1 5SF       0.040700
     50 H27         -6.1540    -6.8600     3.1310 h1         1 5SF       0.040700
     51 H29         -7.6110    -6.6210     4.1060 h1         1 5SF       0.040700
     52 H21         -5.9540    -2.3970     3.3610 ha         1 5SF       0.152500
     53 H24         -1.0660    -7.4360     3.7430 h1         1 5SF       0.040700
     54 H25         -2.5180    -7.0390     4.6710 h1         1 5SF       0.040700
     55 H26         -2.6280    -7.3000     2.9250 h1         1 5SF       0.040700
     56 H11         -1.6320    -1.1450     3.5310 h1         1 5SF       0.062200
     57 H10         -2.3360     0.4590     3.2820 h1         1 5SF       0.062200
     58 H7          -0.5080     0.9380     1.7320 hn         1 5SF       0.351800
     59 H           -1.5800     1.1710    -0.8670 hc         1 5SF       0.038367
     60 H2          -0.0190     1.3370    -1.6820 hc         1 5SF       0.038367
     61 H1          -0.2900     2.1260    -0.1220 hc         1 5SF       0.038367
     62 H12         -4.9420     0.0310     4.9890 ha         1 5SF       0.148000
     63 C16        -10.9600     3.6000    -3.4150 c3         1 5SF       0.061600
@<TRIPOS>BOND
     1    30    29 1   
     2    30    11 2   
     3    63    29 1   
     4    29    12 1   
     5    11    10 1   
     6    12    10 2   
     7    10     8 1   
     8     9     8 ar  
     9     9    31 ar  
    10     8    28 ar  
    11    31     5 ar  
    12    28     6 ar  
    13     5     6 ar  
    14     5     4 ar  
    15     6     7 ar  
    16     4    32 ar  
    17     7    27 ar  
    18    32    27 ar  
    19    27    23 1   
    20    23    24 1   
    21    23    22 1   
    22    24     3 1   
    23     3    25 1   
    24     1    25 1   
    25     1     2 1   
    26     1    26 1   
    27    22    19 ar  
    28    22    16 ar  
    29    19    13 ar  
    30    16    15 ar  
    31    13    18 1   
    32    13    14 ar  
    33    18    17 1   
    34    15    14 ar  
    35    15    20 1   
    36    20    21 1   
    37     1    33 1   
    38     2    34 1   
    39     2    35 1   
    40     2    36 1   
    41     3    37 1   
    42     3    38 1   
    43     4    39 1   
    44     7    40 1   
    45     9    41 1   
    46    11    42 1   
    47    12    43 1   
    48    63    44 1   
    49    63    45 1   
    50    63    46 1   
    51    14    47 1   
    52    16    48 1   
    53    17    49 1   
    54    17    50 1   
    55    17    51 1   
    56    19    52 1   
    57    21    53 1   
    58    21    54 1   
    59    21    55 1   
    60    24    56 1   
    61    24    57 1   
    62    25    58 1   
    63    26    59 1   
    64    26    60 1   
    65    26    61 1   
    66    32    62 1   
@<TRIPOS>SUBSTRUCTURE
     1 5SF         1 TEMP              0 ****  ****    0 ROOT
