@<TRIPOS>MOLECULE
5SF
   63    66     1     0     0
SMALL
bcc


@<TRIPOS>ATOM
      1 C1           0.0000     0.0000     0.0000 c3         1 5SF       0.113500
      2 C2           1.5300     0.0000     0.0000 c3         1 5SF      -0.011100
      3 C3          -1.8370    -0.5790     1.4670 c3         1 5SF       0.104800
      4 C7          -6.4560     1.0430     3.9140 ca         1 5SF      -0.124300
      5 C8          -7.0120     1.3220     2.6530 ca         1 5SF       0.248300
      6 C9          -6.4240     0.7590     1.4910 ca         1 5SF       0.277300
      7 C10         -5.2960    -0.0670     1.6200 ca         1 5SF      -0.140300
      8 C11         -8.0120     1.8030     0.1960 ca         1 5SF       0.389500
      9 C12         -8.5910     2.3580     1.3520 ca         1 5SF       0.288900
     10 C13         -8.5970     2.0960    -1.1340 cc         1 5SF      -0.393800
     11 C14         -8.1300     1.6150    -2.3740 cc         1 5SF       0.439200
     12 C15         -9.6900     2.8770    -1.3820 cd         1 5SF      -0.233300
     13 C19         -5.2440    -4.4060     3.5980 ca         1 5SF       0.233600
     14 C20         -4.1310    -5.2350     3.6360 ca         1 5SF      -0.373000
     15 C21         -2.8620    -4.7030     3.4620 ca         1 5SF       0.233600
     16 C22         -2.7030    -3.3420     3.2500 ca         1 5SF      -0.269500
     17 C24         -6.5730    -6.3380     3.9840 c3         1 5SF       0.244700
     18 O1          -6.4860    -4.9280     3.7690 os         1 5SF      -0.307400
     19 C18         -5.0860    -3.0440     3.3910 ca         1 5SF      -0.269500
     20 O           -1.7740    -5.5160     3.5000 os         1 5SF      -0.307400
     21 C23         -2.0110    -6.9070     3.7230 c3         1 5SF       0.244700
     22 C17         -3.8160    -2.5120     3.2110 ca         1 5SF       0.136600
     23 N1          -3.6560    -1.1390     3.0030 nh         1 5SF      -0.233400
     24 C4          -2.3130    -0.5620     2.9210 c3         1 5SF       0.163800
     25 N           -0.4900     0.0000     1.3850 n7         1 5SF      -0.582200
     26 C           -0.5090     1.2500    -0.7210 c3         1 5SF      -0.011100
     27 C5          -4.7770    -0.3190     2.8710 ca         1 5SF       0.029600
     28 N2          -6.9480     1.0220     0.2890 nb         1 5SF      -0.548000
     29 N5          -9.8910     2.8850    -2.7130 na         1 5SF       0.501400
     30 N4          -8.9050     2.0910    -3.3120 nd         1 5SF      -0.656800
     31 N3          -8.0870     2.1100     2.5360 nb         1 5SF      -0.529000
     32 C6          -5.3640     0.2410     4.0130 ca         1 5SF      -0.100000
     33 H3          -0.3610    -0.8840    -0.5110 h1         1 5SF       0.033700
     34 H4           1.8910     0.8870     0.5070 hc         1 5SF       0.007200
     35 H5           1.8910    -0.0050    -1.0210 hc         1 5SF       0.007200
     36 H6           1.8910    -0.8820     0.5150 hc         1 5SF       0.007200
     37 H9          -1.8140    -1.6010     1.1060 h1         1 5SF       0.019700
     38 H8          -2.5180     0.0030     0.8570 h1         1 5SF       0.019700
     39 H13         -6.8990     1.4680     4.8070 ha         1 5SF       0.119000
     40 H14         -4.9170    -0.6040     0.7580 ha         1 5SF       0.130000
     41 H15         -9.4600     3.0000     1.2620 h4         1 5SF      -0.012900
     42 H16         -7.2750     0.9660    -2.5240 h4         1 5SF       0.018100
     43 H17        -10.2230     3.4770    -0.6540 h4         1 5SF       0.148000
     44 H19        -11.9210     3.2070    -3.1070 h1         1 5SF       0.023367
     45 H20        -10.9080     4.6550    -3.1740 h1         1 5SF       0.023367
     46 H18        -10.8420     3.4680    -4.4840 h1         1 5SF       0.023367
     47 H22         -4.2540    -6.2980     3.8020 ha         1 5SF       0.138000
     48 H23         -1.7120    -2.9280     3.1120 ha         1 5SF       0.136000
     49 H28         -6.0190    -6.6020     4.8760 h1         1 5SF      -0.003800
     50 H27         -6.1540    -6.8600     3.1310 h1         1 5SF      -0.003800
     51 H29         -7.6110    -6.6210     4.1060 h1         1 5SF      -0.003800
     52 H21         -5.9540    -2.3970     3.3610 ha         1 5SF       0.136000
     53 H24         -1.0660    -7.4360     3.7430 h1         1 5SF      -0.003800
     54 H25         -2.5180    -7.0390     4.6710 h1         1 5SF      -0.003800
     55 H26         -2.6280    -7.3000     2.9250 h1         1 5SF      -0.003800
     56 H11         -1.6320    -1.1450     3.5310 h1         1 5SF       0.033700
     57 H10         -2.3360     0.4590     3.2820 h1         1 5SF       0.033700
     58 H7          -0.5080     0.9380     1.7320 hn         1 5SF       0.256800
     59 H           -1.5800     1.1710    -0.8670 hc         1 5SF       0.007200
     60 H2          -0.0190     1.3370    -1.6820 hc         1 5SF       0.007200
     61 H1          -0.2900     2.1260    -0.1220 hc         1 5SF       0.007200
     62 H12         -4.9420     0.0310     4.9890 ha         1 5SF       0.117000
     63 C16        -10.9600     3.6000    -3.4150 c3         1 5SF       0.020600
@<TRIPOS>BOND
     1     1     2 1   
     2     1    25 1   
     3     1    26 1   
     4     1    33 1   
     5     2    34 1   
     6     2    35 1   
     7     2    36 1   
     8     3    24 1   
     9     3    25 1   
    10     3    37 1   
    11     3    38 1   
    12     4     5 ar  
    13     4    32 ar  
    14     4    39 1   
    15     5     6 ar  
    16     5    31 ar  
    17     6     7 ar  
    18     6    28 ar  
    19     7    27 ar  
    20     7    40 1   
    21     8     9 ar  
    22     8    10 1   
    23     8    28 ar  
    24     9    31 ar  
    25     9    41 1   
    26    10    11 1   
    27    10    12 2   
    28    11    30 2   
    29    11    42 1   
    30    12    29 1   
    31    12    43 1   
    32    13    14 ar  
    33    13    18 1   
    34    13    19 ar  
    35    14    15 ar  
    36    14    47 1   
    37    15    16 ar  
    38    15    20 1   
    39    16    22 ar  
    40    16    48 1   
    41    17    18 1   
    42    17    49 1   
    43    17    50 1   
    44    17    51 1   
    45    19    22 ar  
    46    19    52 1   
    47    20    21 1   
    48    21    53 1   
    49    21    54 1   
    50    21    55 1   
    51    22    23 1   
    52    23    24 1   
    53    23    27 1   
    54    24    56 1   
    55    24    57 1   
    56    25    58 1   
    57    26    59 1   
    58    26    60 1   
    59    26    61 1   
    60    27    32 ar  
    61    29    30 1   
    62    29    63 1   
    63    32    62 1   
    64    44    63 1   
    65    45    63 1   
    66    46    63 1   
@<TRIPOS>SUBSTRUCTURE
     1 5SF         1 TEMP              0 ****  ****    0 ROOT
