@<TRIPOS>MOLECULE
molecule
   18    19     1     0     0
SMALL
bcc


@<TRIPOS>ATOM
      1 CAD          0.0000     0.0000     0.0000 ca         1 5SG      -0.165000
      2 CAB          1.3920     0.0000     0.0000 ca         1 5SG      -0.112000
      3 CAE          2.0980     0.0000     1.1650 ca         1 5SG      -0.116000
      4 CAJ          1.4130    -0.0010     2.3910 ca         1 5SG      -0.153300
      5 CAG          2.0890    -0.0000     3.6210 ca         1 5SG       0.439200
      6 NAH          1.4060    -0.0000     4.7420 nb         1 5SG      -0.689000
      7 CAC          0.0800    -0.0020     4.7750 ca         1 5SG       0.405200
      8 CAF         -0.6670    -0.0010     3.6350 ca         1 5SG      -0.221300
      9 CAK         -0.0060    -0.0010     2.3950 ca         1 5SG      -0.029000
     10 CAI         -0.7030     0.0040     1.1730 ca         1 5SG       0.120100
     11 OAA         -2.0610     0.0030     1.1580 oh         1 5SG      -0.512100
     12 H1          -0.5340    -0.0000    -0.9430 ha         1 5SG       0.138000
     13 H2           1.9240    -0.0030    -0.9440 ha         1 5SG       0.134000
     14 H3           3.1810    -0.0000     1.1460 ha         1 5SG       0.137000
     15 H4           3.1720     0.0010     3.6450 h4         1 5SG       0.027100
     16 H5          -0.4220    -0.0010     5.7350 h4         1 5SG       0.022100
     17 H6          -1.7500    -0.0020     3.6840 ha         1 5SG       0.152000
     18 H7          -2.3720     0.7950     0.7520 ho         1 5SG       0.423000
@<TRIPOS>BOND
     1    11    10 1   
     2    10     1 ar  
     3    10     9 ar  
     4     1     2 ar  
     5     8     9 ar  
     6     8     7 ar  
     7     9     4 ar  
     8     7     6 ar  
     9     2     3 ar  
    10     4     3 ar  
    11     4     5 ar  
    12     6     5 ar  
    13     1    12 1   
    14     2    13 1   
    15     3    14 1   
    16     5    15 1   
    17     7    16 1   
    18     8    17 1   
    19    11    18 1   
@<TRIPOS>SUBSTRUCTURE
     1 5SG         1 TEMP              0 ****  ****    0 ROOT
