@<TRIPOS>MOLECULE
molecule
   21    22     1     0     0
SMALL
bcc


@<TRIPOS>ATOM
      1 CAF          0.0000     0.0000     0.0000 ca         1 5SH      -0.112000
      2 CAB          1.3800     0.0000     0.0000 ca         1 5SH      -0.128000
      3 CAA          2.0740     0.0000     1.1960 ca         1 5SH      -0.120000
      4 CAC          1.3900    -0.0000     2.3980 ca         1 5SH      -0.128000
      5 CAG          0.0100     0.0010     2.4100 ca         1 5SH      -0.112000
      6 CAK         -0.6940     0.0060     1.2080 cp         1 5SH      -0.046000
      7 CAL         -2.1780     0.0070     1.2140 cp         1 5SH       0.005000
      8 CAH         -2.9010     0.0120     0.0190 ca         1 5SH      -0.249800
      9 CAD         -4.2800     0.0130     0.0700 ca         1 5SH       0.422200
     10 NAJ         -4.9140     0.0090     1.2260 nb         1 5SH      -0.694000
     11 CAE         -4.2700     0.0040     2.3780 ca         1 5SH       0.422200
     12 CAI         -2.8910    -0.0040     2.4170 ca         1 5SH      -0.249800
     13 H1          -0.5430     0.0020    -0.9380 ha         1 5SH       0.134000
     14 H2           1.9210    -0.0020    -0.9390 ha         1 5SH       0.132000
     15 H3           3.1580    -0.0000     1.1910 ha         1 5SH       0.131000
     16 H4           1.9390    -0.0020     3.3320 ha         1 5SH       0.132000
     17 H5          -0.5240     0.0030     3.3520 ha         1 5SH       0.134000
     18 H6          -2.3860     0.0150    -0.9350 ha         1 5SH       0.140000
     19 H7          -4.8490     0.0170    -0.8520 h4         1 5SH       0.023100
     20 H8          -4.8310    -0.0010     3.3040 h4         1 5SH       0.023100
     21 H9          -2.3680    -0.0080     3.3650 ha         1 5SH       0.140000
@<TRIPOS>BOND
     1    10    11 ar  
     2    10     9 ar  
     3    11    12 ar  
     4     9     8 ar  
     5    12     7 ar  
     6     8     7 ar  
     7     7     6 1   
     8     6     5 ar  
     9     6     1 ar  
    10     5     4 ar  
    11     1     2 ar  
    12     4     3 ar  
    13     2     3 ar  
    14     1    13 1   
    15     2    14 1   
    16     3    15 1   
    17     4    16 1   
    18     5    17 1   
    19     8    18 1   
    20     9    19 1   
    21    11    20 1   
    22    12    21 1   
@<TRIPOS>SUBSTRUCTURE
     1 5SH         1 TEMP              0 ****  ****    0 ROOT
