@<TRIPOS>MOLECULE
molecule
   48    50     1     0     0
SMALL
bcc


@<TRIPOS>ATOM
      1 N1           0.0000     0.0000     0.0000 n          1 5SI      -0.235000
      2 C2           1.3660     0.0000     0.0000 cc         1 5SI       0.015600
      3 C3           2.0850     0.0000     1.1350 cd         1 5SI      -0.246200
      4 C4           1.3940     0.0010     2.4240 ca         1 5SI      -0.015800
      5 C5          -0.0210     0.0020     2.4290 ca         1 5SI      -0.074600
      6 C6          -0.7190     0.0060     1.1400 cs         1 5SI       0.383000
      7 PA           0.5560    -3.9850    -5.3910 p5         1 5SI       1.452800
      8 PB          -0.2250    -6.7700    -6.0350 p5         1 5SI       1.527800
      9 PG          -0.8270    -9.5410    -5.1720 p5         1 5SI       1.325900
     10 C1'         -0.7070    -0.0000    -1.2820 c3         1 5SI       0.270500
     11 O1A          2.1030    -4.1510    -4.9780 o          1 5SI      -0.857000
     12 O1B         -1.1000    -6.5780    -7.3720 o          1 5SI      -0.851000
     13 O1G         -1.7630   -10.0740    -6.3700 o          1 5SI      -0.765500
     14 C2'         -0.3670     1.2760    -2.0840 c3         1 5SI      -0.156400
     15 O2A          0.4670    -3.5590    -6.8060 o          1 5SI      -0.857000
     16 O2B          1.1600    -7.1460    -6.4020 o          1 5SI      -0.851000
     17 O2G          0.5660    -9.9880    -5.3980 o          1 5SI      -0.765500
     18 C3'         -0.2980     0.7920    -3.5500 c3         1 5SI       0.100100
     19 O3'         -1.2840     1.4560    -4.3440 oh         1 5SI      -0.598800
     20 S36         -2.4310     0.0080     1.0830 s          1 5SI      -0.813400
     21 C37          2.0870     0.0010     3.6350 ca         1 5SI      -0.156000
     22 C38          1.3870     0.0020     4.8210 ca         1 5SI      -0.178300
     23 C39         -0.0020     0.0020     4.8240 ca         1 5SI      -0.131000
     24 O3A         -0.2040    -5.3910    -5.2040 os         1 5SI      -0.724800
     25 O3B         -0.8750    -7.9320    -5.1300 os         1 5SI      -0.728800
     26 O3G         -1.3600   -10.1310    -3.7710 o          1 5SI      -0.765500
     27 C4'         -0.6040    -0.7200    -3.4600 c3         1 5SI       0.130100
     28 O4'         -0.2450    -1.0890    -2.1110 os         1 5SI      -0.375600
     29 C40         -0.7100     0.0030     3.6420 ca         1 5SI      -0.134000
     30 C41          2.1340     0.0010     6.1290 c3         1 5SI      -0.021800
     31 C5'          0.2460    -1.4960    -4.4690 c3         1 5SI       0.243400
     32 O5'         -0.1330    -2.8730    -4.4520 os         1 5SI      -0.587200
     33 H2           1.8880    -0.0050    -0.9490 h4         1 5SI       0.157000
     34 H3           3.1680     0.0000     1.0950 ha         1 5SI       0.124000
     35 H1'         -1.7770    -0.0730    -1.1290 h2         1 5SI       0.139700
     36 H2'          0.5900     1.6740    -1.7720 hc         1 5SI       0.047700
     37 H2'A        -1.1500     2.0160    -1.9660 hc         1 5SI       0.047700
     38 H3'          0.6940     0.9530    -3.9530 h1         1 5SI       0.038700
     39 HO3'        -0.8680     2.1140    -4.8750 ho         1 5SI       0.380000
     40 H37          3.1710     0.0010     3.6430 ha         1 5SI       0.100000
     41 H39         -0.5350     0.0020     5.7670 ha         1 5SI       0.089000
     42 H4'         -1.6590    -0.9000    -3.6300 h1         1 5SI       0.078700
     43 H40         -1.7930     0.0030     3.6540 ha         1 5SI       0.153000
     44 H41          1.4830    -0.3570     6.9170 hc         1 5SI       0.011700
     45 H41A         2.4600     1.0080     6.3590 hc         1 5SI       0.011700
     46 H41B         2.9980    -0.6490     6.0510 hc         1 5SI       0.011700
     47 H5'          0.0890    -1.0900    -5.4610 h1         1 5SI       0.025200
     48 H5'A         1.2930    -1.4060    -4.2040 h1         1 5SI       0.025200
@<TRIPOS>BOND
     1     6     1 1   
     2     1    10 1   
     3     1     2 1   
     4     3     2 2   
     5     2    33 1   
     6     4     3 1   
     7     3    34 1   
     8     5     4 ar  
     9    21     4 ar  
    10    29     5 ar  
    11     5     6 1   
    12    20     6 2   
    13    32     7 1   
    14     7    15 1   
    15     7    24 1   
    16     7    11 1   
    17    24     8 1   
    18    16     8 1   
    19    12     8 1   
    20     8    25 1   
    21    25     9 1   
    22    17     9 1   
    23     9    13 1   
    24     9    26 1   
    25    14    10 1   
    26    10    28 1   
    27    10    35 1   
    28    14    18 1   
    29    14    36 1   
    30    14    37 1   
    31    19    18 1   
    32    18    27 1   
    33    18    38 1   
    34    19    39 1   
    35    22    21 ar  
    36    21    40 1   
    37    23    22 ar  
    38    30    22 1   
    39    23    29 ar  
    40    23    41 1   
    41    27    28 1   
    42    27    31 1   
    43    27    42 1   
    44    29    43 1   
    45    30    44 1   
    46    30    45 1   
    47    30    46 1   
    48    31    32 1   
    49    31    47 1   
    50    31    48 1   
@<TRIPOS>SUBSTRUCTURE
     1 5SI         1 TEMP              0 ****  ****    0 ROOT
