@<TRIPOS>MOLECULE
molecule
   31    32     1     0     0
SMALL
bcc


@<TRIPOS>ATOM
      1 CAA          0.0000     0.0000     0.0000 c3         1 5SJ      -0.096100
      2 CAH          1.5300     0.0000     0.0000 c3         1 5SJ       0.147400
      3 OAK          2.0130     0.0000     1.3690 os         1 5SJ      -0.429900
      4 CAL          3.3490     0.0010     1.5460 c          1 5SJ       0.651700
      5 OAC          4.0890     0.0010     0.5820 o          1 5SJ      -0.551000
      6 CAN          3.9130     0.0000     2.9080 ca         1 5SJ      -0.118600
      7 CAG          5.3000     0.0070     3.0910 ca         1 5SJ      -0.097000
      8 CAP          5.8220     0.0110     4.3680 ca         1 5SJ       0.008600
      9 NAI          7.2070     0.0080     4.5730 ns         1 5SJ      -0.462100
     10 C            7.7220     0.2940     5.7850 c          1 5SJ       0.665500
     11 O            8.9220     0.2450     5.9540 o          1 5SJ      -0.620500
     12 CA           6.8220     0.6750     6.9330 c3         1 5SJ       0.122500
     13 CB           6.6410     2.1940     6.9590 c3         1 5SJ      -0.084100
     14 N            5.5140     0.0280     6.7540 nu         1 5SJ      -0.721600
     15 CAO          4.9610     0.0140     5.4720 ca         1 5SJ       0.095600
     16 CAF          3.5850     0.0070     5.2900 ca         1 5SJ      -0.115000
     17 CAE          3.0600    -0.0000     4.0160 ca         1 5SJ      -0.092000
     18 H1          -0.3610    -0.0010    -1.0210 hc         1 5SJ       0.048033
     19 H2          -0.3610     0.8850     0.5100 hc         1 5SJ       0.048033
     20 H3          -0.3610    -0.8840     0.5120 hc         1 5SJ       0.048033
     21 H4           1.8910    -0.8850    -0.5110 h1         1 5SJ       0.050700
     22 H5           1.8910     0.8850    -0.5110 h1         1 5SJ       0.050700
     23 H6           5.9590    -0.0840     2.2360 ha         1 5SJ       0.160000
     24 H7           7.8200    -0.2070     3.8120 hn         1 5SJ       0.341500
     25 H8           7.2640     0.3420     7.8640 h1         1 5SJ       0.098700
     26 H9           5.7310     2.4400     7.4930 hc         1 5SJ       0.052700
     27 H10          6.5760     2.5670     5.9440 hc         1 5SJ       0.052700
     28 H11          7.4870     2.6500     7.4580 hc         1 5SJ       0.052700
     29 H12          5.5530    -0.9060     7.1100 hn         1 5SJ       0.386800
     30 H13          2.9250     0.0070     6.1490 ha         1 5SJ       0.152000
     31 H14          1.9860     0.0010     3.8720 ha         1 5SJ       0.155000
@<TRIPOS>BOND
     1    11    10 2
     2    13    12 1
     3    10    12 1
     4    10     9 1
     5    12    14 1
     6     9     8 1
     7    14    15 1
     8     8    15 ar
     9     8     7 ar
    10    15    16 ar
    11     7     6 ar
    12    16    17 ar
    13     6    17 ar
    14     6     4 1
    15     5     4 2
    16     4     3 1
    17     3     2 1
    18     2     1 1
    19     1    18 1
    20     1    19 1
    21     1    20 1
    22     2    21 1
    23     2    22 1
    24     7    23 1
    25     9    24 1
    26    12    25 1
    27    13    26 1
    28    13    27 1
    29    13    28 1
    30    14    29 1
    31    16    30 1
    32    17    31 1
@<TRIPOS>SUBSTRUCTURE
     1 5SJ         1 TEMP              0 ****  ****    0 ROOT
