@<TRIPOS>MOLECULE
molecule
   36    38     1     0     0
SMALL
bcc


@<TRIPOS>ATOM
      1 CAA          0.0000     0.0000     0.0000 c3         1 5SK      -0.094100
      2 CAH          1.5300     0.0000     0.0000 c3         1 5SK      -0.099400
      3 CAR          2.0400     0.0000     1.4430 c3         1 5SK       0.239500
      4 CAC          3.5660    -0.1260     1.4440 c3         1 5SK      -0.110100
      5 NAL          1.6530     1.2520     2.0980 nu         1 5SK      -0.876900
      6 CAN          1.5230     1.3010     3.4720 cc         1 5SK       0.768200
      7 NAK          1.7460     0.2250     4.1930 nd         1 5SK      -0.793000
      8 CAO          1.6270     0.2440     5.5460 ca         1 5SK       0.452600
      9 CAF          1.8730    -0.9210     6.2830 ca         1 5SK      -0.170300
     10 CAD          1.7520    -0.9050     7.6530 ca         1 5SK      -0.114000
     11 CAE          1.3870     0.2590     8.3120 ca         1 5SK      -0.133000
     12 CAG          1.1410     1.4150     7.6030 ca         1 5SK      -0.126000
     13 CAP          1.2580     1.4210     6.2190 ca         1 5SK      -0.129600
     14 NAS          1.0130     2.5770     5.4960 na         1 5SK      -0.047200
     15 CAQ          1.1420     2.5530     4.1290 cd         1 5SK      -0.220600
     16 NAJ          0.8630     3.7650     3.6990 nc         1 5SK      -0.067000
     17 NAI          0.5820     4.5210     4.7030 nc         1 5SK      -0.366700
     18 CAM          0.6530     3.8340     5.8180 cd         1 5SK       0.328800
     19 CAB          0.3940     4.3600     7.2060 c3         1 5SK      -0.090400
     20 H1          -0.3610    -0.6170     0.8140 hc         1 5SK       0.038033
     21 H2          -0.3610    -0.3960    -0.9420 hc         1 5SK       0.038033
     22 H3          -0.3610     1.0130     0.1280 hc         1 5SK       0.038033
     23 H4           1.8910    -0.8850    -0.5110 hc         1 5SK       0.050200
     24 H5           1.8910     0.8840    -0.5110 hc         1 5SK       0.050200
     25 H6           1.6080    -0.8370     1.9780 h1         1 5SK       0.083700
     26 H7           3.8480    -1.0950     1.0520 hc         1 5SK       0.043700
     27 H8           3.9350    -0.0250     2.4580 hc         1 5SK       0.043700
     28 H9           3.9930     0.6530     0.8250 hc         1 5SK       0.043700
     29 H10          1.5100     2.0790     1.5520 hn         1 5SK       0.464800
     30 H11          2.1590    -1.8340     5.7750 ha         1 5SK       0.154000
     31 H12          1.9430    -1.8080     8.2210 ha         1 5SK       0.137000
     32 H13          1.2950     0.2610     9.3920 ha         1 5SK       0.136000
     33 H14          0.8560     2.3200     8.1250 ha         1 5SK       0.140000
     34 H15          1.2970     4.2750     7.7980 hc         1 5SK       0.062367
     35 H16         -0.3980     3.7830     7.6690 hc         1 5SK       0.062367
     36 H17          0.0960     5.4000     7.1480 hc         1 5SK       0.062367
@<TRIPOS>BOND
     1    17    16 1
     2    17    18 2
     3    16    15 2
     4     1     2 1
     5     3     2 1
     6     3     5 1
     7     3     4 1
     8    18    19 1
     9    18    14 1
    10     5     6 1
    11    15     6 1
    12    15    14 1
    13     6     7 2
    14    14    13 1
    15     7     8 1
    16    13     8 ar
    17    13    12 ar
    18     8     9 ar
    19    12    11 ar
    20     9    10 ar
    21    11    10 ar
    22     1    20 1
    23     1    21 1
    24     1    22 1
    25     2    23 1
    26     2    24 1
    27     3    25 1
    28     4    26 1
    29     4    27 1
    30     4    28 1
    31     5    29 1
    32     9    30 1
    33    10    31 1
    34    11    32 1
    35    12    33 1
    36    19    34 1
    37    19    35 1
    38    19    36 1
@<TRIPOS>SUBSTRUCTURE
     1 5SK         1 TEMP              0 ****  ****    0 ROOT
