@<TRIPOS>MOLECULE
molecule
   36    38     1     0     0
SMALL
bcc


@<TRIPOS>ATOM
      1 N3           0.0000     0.0000     0.0000 nb         1 5SM      -0.296000
      2 C4          -1.7260     2.3610     4.0340 cc         1 5SM      -0.292600
      3 N2          -1.9130     1.1310     3.4640 na         1 5SM      -0.186900
      4 C7           1.2550    -0.0010     2.3940 ca         1 5SM      -0.200300
      5 C6          -0.1250    -0.0010     2.2780 ca         1 5SM       0.331600
      6 C9           1.3190     0.0000     0.0000 ca         1 5SM       0.357200
      7 C13          6.2610    -0.0110     1.3240 ca         1 5SM       0.179900
      8 C8           2.0090     0.0000     1.2140 cp         1 5SM      -0.108300
      9 C2          -3.1130     1.1560     2.8460 cc         1 5SM       0.427800
     10 N1          -3.6490     2.3330     3.0180 nd         1 5SM      -0.699000
     11 C3          -2.8180     3.0950     3.7440 cd         1 5SM       0.322200
     12 C5          -0.9840     0.0000     3.5150 c3         1 5SM       0.008000
     13 N4          -0.6860    -0.0000     1.0840 nb         1 5SM      -0.302000
     14 C10          3.4930     0.0010     1.2520 cp         1 5SM      -0.068000
     15 C11          4.1600     0.0000     2.4770 ca         1 5SM      -0.071000
     16 C12          5.5390    -0.0000     2.5080 ca         1 5SM      -0.168000
     17 C14          5.6010    -0.0160     0.1060 ca         1 5SM      -0.206300
     18 C15          4.2220    -0.0110     0.0660 ca         1 5SM      -0.054000
     19 F1           7.6060    -0.6940    -0.9700 f          1 5SM      -0.230800
     20 F2           5.6600    -0.6930    -2.1680 f          1 5SM      -0.230800
     21 H1          -0.8650     2.6830     4.6070 h4         1 5SM       0.168000
     22 H2           1.7350    -0.0010     3.3650 ha         1 5SM       0.149000
     23 H3           1.8630     0.0010    -0.9360 h4         1 5SM       0.040100
     24 H4           6.5860     0.9880    -1.4920 h2         1 5SM       0.080700
     25 H5          -3.5630     0.1510     1.0240 hc         1 5SM       0.056367
     26 H6          -3.2820    -0.9200     2.4040 hc         1 5SM       0.056367
     27 H7          -4.7980    -0.0170     2.2800 hc         1 5SM       0.056367
     28 H8          -2.9940     4.1210     4.0450 h4         1 5SM       0.039100
     29 H9          -0.3550     0.0890     4.3920 h1         1 5SM       0.075200
     30 H10         -1.5450    -0.9250     3.5660 h1         1 5SM       0.075200
     31 H11          3.5960     0.0090     3.4020 ha         1 5SM       0.142000
     32 H12          6.0590     0.0020     3.4580 ha         1 5SM       0.157000
     33 H13          3.7070    -0.0150    -0.8870 ha         1 5SM       0.155000
     34 F3           7.6120    -0.0110     1.3590 f          1 5SM      -0.118900
     35 C16          6.3920    -0.0310    -1.1770 c3         1 5SM       0.458200
     36 C1          -3.7330     0.0120     2.0850 c3         1 5SM      -0.102400
@<TRIPOS>BOND
     1     2    11 2   
     2     2     3 1   
     3    12     3 1   
     4    12     5 1   
     5    11    10 1   
     6     3     9 1   
     7     5    13 ar  
     8     5     4 ar  
     9    13     1 ar  
    10     4     8 ar  
    11    20    35 1   
    12     1     6 ar  
    13     8     6 ar  
    14     8    14 1   
    15    10     9 2   
    16     9    36 1   
    17    18    14 ar  
    18    18    17 ar  
    19    14    15 ar  
    20    35    17 1   
    21    35    19 1   
    22    17     7 ar  
    23    15    16 ar  
    24     7    16 ar  
    25     7    34 1   
    26     2    21 1   
    27     4    22 1   
    28     6    23 1   
    29    35    24 1   
    30    36    25 1   
    31    36    26 1   
    32    36    27 1   
    33    11    28 1   
    34    12    29 1   
    35    12    30 1   
    36    15    31 1   
    37    16    32 1   
    38    18    33 1   
@<TRIPOS>SUBSTRUCTURE
     1 5SM         1 TEMP              0 ****  ****    0 ROOT
