@<TRIPOS>MOLECULE
molecule
   26    28     1     0     0
SMALL
bcc


@<TRIPOS>ATOM
      1 CAA          0.0000     0.0000     0.0000 c3         1 5SN      -0.043800
      2 CAJ          1.5070     0.0000     0.0000 cc         1 5SN      -0.071300
      3 CAM          2.2520     0.0000     1.2620 ca         1 5SN      -0.053000
      4 CAE          1.5840     0.0020     2.4910 ca         1 5SN      -0.095000
      5 CAC          2.3030     0.0020     3.6540 ca         1 5SN      -0.134000
      6 CAD          3.6900     0.0020     3.6240 ca         1 5SN      -0.102000
      7 CAF          4.3680     0.0010     2.4240 ca         1 5SN      -0.150000
      8 CAN          3.6570    -0.0010     1.2300 ca         1 5SN       0.035700
      9 NAO          4.3120    -0.0010     0.0120 na         1 5SN      -0.076200
     10 CAK          5.6270    -0.0010    -0.3360 cd         1 5SN       0.308800
     11 CAB          6.7990    -0.0020     0.6100 c3         1 5SN      -0.088400
     12 NAH          5.6850    -0.0000    -1.6420 nc         1 5SN      -0.355700
     13 NAI          4.5000    -0.0010    -2.1410 nc         1 5SN      -0.081000
     14 CAL          3.6080    -0.0010    -1.1640 cd         1 5SN      -0.069300
     15 CAG          2.1930    -0.0070    -1.1670 cd         1 5SN      -0.083000
     16 H1          -0.3610     0.8840     0.5120 hc         1 5SN       0.050367
     17 H2          -0.3610     0.0010    -1.0210 hc         1 5SN       0.050367
     18 H3          -0.3610    -0.8850     0.5100 hc         1 5SN       0.050367
     19 H4           0.5020     0.0020     2.5210 ha         1 5SN       0.143000
     20 H5           1.7850     0.0030     4.6050 ha         1 5SN       0.137000
     21 H6           4.2460     0.0020     4.5540 ha         1 5SN       0.138000
     22 H7           5.4510     0.0010     2.4120 ha         1 5SN       0.148000
     23 H8           7.7210    -0.0020     0.0410 hc         1 5SN       0.059367
     24 H9           6.7600     0.8830     1.2330 hc         1 5SN       0.059367
     25 H10          6.7590    -0.8860     1.2340 hc         1 5SN       0.059367
     26 H11          1.6560    -0.0170    -2.1070 ha         1 5SN       0.163000
@<TRIPOS>BOND
     1    12    13 1
     2    12    10 2
     3    13    14 2
     4    10    11 1
     5    10     9 1
     6    14    15 1
     7    14     9 1
     8    15     2 2
     9     9     8 1
    10     2     1 1
    11     2     3 1
    12     8     3 ar
    13     8     7 ar
    14     3     4 ar
    15     7     6 ar
    16     4     5 ar
    17     6     5 ar
    18     1    16 1
    19     1    17 1
    20     1    18 1
    21     4    19 1
    22     5    20 1
    23     6    21 1
    24     7    22 1
    25    11    23 1
    26    11    24 1
    27    11    25 1
    28    15    26 1
@<TRIPOS>SUBSTRUCTURE
     1 5SN         1 TEMP              0 ****  ****    0 ROOT
