@<TRIPOS>MOLECULE
molecule
   44    45     1     0     0
SMALL
bcc


@<TRIPOS>ATOM
      1 C1           0.0000     0.0000     0.0000 c3         1 5SR       0.065600
      2 C2          -0.4080    -2.1450    -1.8860 c3         1 5SR      -0.025800
      3 C3           1.5080     0.0000     0.0000 ca         1 5SR      -0.384900
      4 C4           2.2160     0.0000     1.1850 ca         1 5SR       0.508200
      5 C6           4.1870     0.0010    -0.0020 ca         1 5SR       0.698300
      6 C10          5.6930     0.0010     0.0050 c3         1 5SR      -0.120400
      7 N5           3.5400     0.0010     1.1470 nb         1 5SR      -0.763000
      8 N7           3.5520    -0.0040    -1.1560 nb         1 5SR      -0.790000
      9 C8           2.2220    -0.0050    -1.2000 ca         1 5SR       0.722200
     10 N9           1.5580    -0.0100    -2.4160 nv         1 5SR      -1.061500
     11 N11         -0.4880    -1.3130     0.4320 na         1 5SR       0.073900
     12 C12         -0.7640    -1.5730     1.6820 cc         1 5SR      -0.134000
     13 S13         -1.3180    -3.2390     1.8090 ss         1 5SR       0.049200
     14 C14         -1.1220    -3.4430     0.1220 cd         1 5SR      -0.113400
     15 C15         -0.6770    -2.2930    -0.4100 cc         1 5SR      -0.112600
     16 C16         -0.6340    -0.6260     2.8010 c          1 5SR       0.916200
     17 O17         -0.8440    -1.0450     4.0650 o          1 5SR      -0.819800
     18 O18         -0.3370     0.5320     2.5860 o          1 5SR      -0.819800
     19 C19         -1.4090    -4.7080    -0.6450 c3         1 5SR      -0.012100
     20 C20         -0.1470    -5.5720    -0.6930 c3         1 5SR       0.236400
     21 O21         -0.4180    -6.7720    -1.4200 os         1 5SR      -0.605200
     22 P22          0.6870    -7.9160    -1.6690 p5         1 5SR       1.434800
     23 O23          0.0010    -9.1730    -2.4050 os         1 5SR      -0.714800
     24 P24          0.3960   -10.7250    -2.5670 p5         1 5SR       1.306900
     25 O25          1.2470    -8.3510    -0.3700 o          1 5SR      -0.854500
     26 O27          1.8670    -7.3300    -2.5940 o          1 5SR      -0.854500
     27 O28         -0.3920   -11.3520    -3.8240 o          1 5SR      -0.814167
     28 O29          1.9180   -10.8500    -2.8000 o          1 5SR      -0.814167
     29 O30          0.0080   -11.4920    -1.2830 o          1 5SR      -0.814167
     30 H1          -0.3610     0.7610     0.6810 h1         1 5SR       0.092700
     31 H2          -0.3610     0.2090    -1.0000 h1         1 5SR       0.092700
     32 H3          -0.9760    -2.8870    -2.4330 hc         1 5SR       0.052700
     33 H4           0.6490    -2.2870    -2.0760 hc         1 5SR       0.052700
     34 H5          -0.7030    -1.1540    -2.2090 hc         1 5SR       0.052700
     35 H6           1.6950    -0.0000     2.1350 h4         1 5SR       0.085100
     36 H7           6.0560    -0.9650    -0.3250 hc         1 5SR       0.051700
     37 H8           6.0490     0.1960     1.0090 hc         1 5SR       0.051700
     38 H9           6.0580     0.7710    -0.6640 hc         1 5SR       0.051700
     39 H10          0.9490     0.7460    -2.6550 hn         1 5SR       0.437300
     40 H11          1.7430    -0.7330    -3.0830 hn         1 5SR       0.437300
     41 H13         -2.2030    -5.2570    -0.1540 hc         1 5SR       0.053200
     42 H14         -1.7130    -4.4570    -1.6540 hc         1 5SR       0.053200
     43 H15          0.1580    -5.8230     0.3160 h1         1 5SR       0.027200
     44 H16          0.6480    -5.0240    -1.1850 h1         1 5SR       0.027200
@<TRIPOS>BOND
     1    18    16 1   
     2    17    16 1   
     3    10     9 1   
     4    16    12 1   
     5     8     9 ar  
     6     8     5 ar  
     7     9     3 ar  
     8     6     5 1   
     9     5     7 ar  
    10    12    11 2   
    11    12    13 1   
    12     3     1 1   
    13     3     4 ar  
    14     1    11 1   
    15     7     4 ar  
    16    11    15 1   
    17    13    14 1   
    18    15    14 2   
    19    15     2 1   
    20    14    19 1   
    21    19    20 1   
    22    28    24 1   
    23    20    21 1   
    24    29    24 1   
    25    23    24 1   
    26    23    22 1   
    27    24    27 1   
    28    25    22 1   
    29    21    22 1   
    30    22    26 1   
    31     1    30 1   
    32     1    31 1   
    33     2    32 1   
    34     2    33 1   
    35     2    34 1   
    36     4    35 1   
    37     6    36 1   
    38     6    37 1   
    39     6    38 1   
    40    10    39 1   
    41    10    40 1   
    42    19    41 1   
    43    19    42 1   
    44    20    43 1   
    45    20    44 1   
@<TRIPOS>SUBSTRUCTURE
     1 5SR         1 TEMP              0 ****  ****    0 ROOT
