@<TRIPOS>MOLECULE
molecule
   71    74     1     0     0
SMALL
bcc


@<TRIPOS>ATOM
      1 C13          0.0000     0.0000     0.0000 cp         1 5ST      -0.075000
      2 C18         -5.8700     1.8760    -2.5930 c          1 5ST       0.661100
      3 C17         -2.7910     0.0140    -2.5210 ca         1 5ST       0.414600
      4 C16          1.3870    -0.0010     2.3980 ca         1 5ST       0.102600
      5 C15         -6.2910    -1.2120    -3.3790 ca         1 5ST      -0.073300
      6 C19          3.2700     0.6360     3.7020 c          1 5ST       0.745100
      7 C20         -6.6940     3.0050    -4.6410 c3         1 5ST      -0.063900
      8 C21         -7.6090     3.6320    -2.4020 c3         1 5ST      -0.063900
      9 C22         -7.1900     4.3350    -5.2150 c3         1 5ST      -0.082400
     10 C23         -8.1050     4.9610    -2.9770 c3         1 5ST      -0.082400
     11 C24         -6.3580     3.1840    -3.1590 c3         1 5ST      -0.149700
     12 C11         -2.1410     0.0060    -1.3050 ca         1 5ST      -0.335300
     13 C12         -0.7930     0.0250    -3.6770 ca         1 5ST       0.464200
     14 C27         -4.7870    -1.1370    -3.4400 c3         1 5ST      -0.042100
     15 C1          -9.0500    -1.3510    -3.2670 ca         1 5ST      -0.124000
     16 C2          -8.4350    -0.5690    -4.2280 ca         1 5ST      -0.126000
     17 C3          -8.2840    -2.0710    -2.3700 ca         1 5ST      -0.126000
     18 C4           1.3940     0.0000     0.0000 ca         1 5ST      -0.076000
     19 C5          -0.6950    -0.0010     1.2080 ca         1 5ST      -0.076000
     20 C6          -7.0560    -0.5000    -4.2840 ca         1 5ST      -0.119000
     21 C7          -6.9050    -1.9980    -2.4230 ca         1 5ST      -0.119000
     22 C8           2.0830     0.0000     1.1940 ca         1 5ST      -0.159000
     23 C9          -0.0030    -0.0010     2.4000 ca         1 5ST      -0.159000
     24 C10         -0.0640     0.0140    -2.5060 ca         1 5ST      -0.282300
     25 C14         -0.7420     0.0070    -1.2840 cp         1 5ST       0.069000
     26 C25         -8.4420     4.7820    -4.4580 c3         1 5ST      -0.112700
     27 C28         -8.9370     6.1100    -5.0320 c3         1 5ST       0.078800
     28 C29         -4.2980     0.0140    -2.5580 c3         1 5ST       0.073400
     29 N30         -2.1130     0.0250    -3.6530 nb         1 5ST      -0.751000
     30 N31         -9.3730     5.9120    -6.4210 nz         1 5ST      -0.838600
     31 N32          2.0870    -0.0030     3.6080 ns         1 5ST      -0.457100
     32 N33         -4.7730     1.2870    -3.1080 ns         1 5ST      -0.577900
     33 O34         -6.4650     1.3530    -1.6760 o          1 5ST      -0.583100
     34 O35          3.6840     1.2900     2.7650 o          1 5ST      -0.590000
     35 O36          3.9930     0.5510     4.8350 os         1 5ST      -0.454900
     36 H3          -7.3690     3.7600    -1.3540 hc         1 5ST       0.073700
     37 H4          -8.3840     2.8820    -2.5110 hc         1 5ST       0.073700
     38 H5          -6.4170     5.0850    -5.1060 hc         1 5ST       0.049700
     39 H6          -7.4310     4.2060    -6.2640 hc         1 5ST       0.049700
     40 H7          -8.9930     5.2760    -2.4420 hc         1 5ST       0.049700
     41 H8          -7.3300     5.7100    -2.8720 hc         1 5ST       0.049700
     42 H9          -5.5870     3.9380    -3.0550 hc         1 5ST       0.069700
     43 H10         -2.4680     1.0330    -1.4200 ha         1 5ST       0.187000
     44 H11         -0.2760     0.0320    -4.6290 h4         1 5ST       0.029100
     45 H12         -4.3640    -2.0690    -3.0850 hc         1 5ST       0.069200
     46 H13         -4.4760    -0.9660    -4.4630 hc         1 5ST       0.069200
     47 H14        -10.1310    -1.4070    -3.2250 ha         1 5ST       0.128000
     48 H15         -9.0350    -0.0070    -4.9340 ha         1 5ST       0.123000
     49 H16         -8.7650    -2.6860    -1.6190 ha         1 5ST       0.123000
     50 H17          1.9360    -0.0410    -0.9370 ha         1 5ST       0.145000
     51 H18         -1.7610     0.0070     1.4000 ha         1 5ST       0.145000
     52 H19         -6.5740     0.1130    -5.0360 ha         1 5ST       0.126000
     53 H20         -6.3060    -2.5630    -1.7190 ha         1 5ST       0.126000
     54 H21          3.1650    -0.0450     1.1950 ha         1 5ST       0.154500
     55 H22         -0.6410    -0.0070     3.2760 ha         1 5ST       0.154500
     56 H23          1.0190     0.0140    -2.5330 ha         1 5ST       0.152000
     57 H24         -9.2130     4.0290    -4.5630 hc         1 5ST       0.076700
     58 H25          4.5530     1.7160     4.1780 h1         1 5ST       0.088033
     59 H26          5.4420     1.8310     5.7710 h1         1 5ST       0.088033
     60 H27          6.0880     0.7480     4.4030 h1         1 5ST       0.088033
     61 H28         -9.7690     6.4720    -4.4410 hx         1 5ST       0.110200
     62 H29         -8.1340     6.8370    -5.0070 hx         1 5ST       0.110200
     63 H30         -4.6830    -0.1120    -1.5540 h1         1 5ST       0.113700
     64 H31         -8.7820     5.1090    -6.5030 hn         1 5ST       0.468133
     65 H32        -10.3450     5.6840    -6.4910 hn         1 5ST       0.468133
     66 H34          1.7270    -0.5060     4.3940 hn         1 5ST       0.342500
     67 H35         -4.2560     1.7420    -3.8340 hn         1 5ST       0.318500
     68 H1          -7.4690     2.2560    -4.7470 hc         1 5ST       0.073700
     69 C26          5.2560     1.2640     4.8670 c3         1 5ST       0.057700
     70 H313        -9.0930     6.6600    -7.0240 hn         1 5ST       0.468133
     71 H2          -5.8060     2.6910    -5.1760 hc         1 5ST       0.073700
@<TRIPOS>BOND
     1    13    29 ar  
     2    13    24 ar  
     3    29     3 ar  
     4    10     8 1   
     5    10    26 1   
     6    30    27 1   
     7     8    11 1   
     8    21    17 ar  
     9    21     5 ar  
    10    24    25 ar  
    11    27    26 1   
    12    14     5 1   
    13    14    28 1   
    14    17    15 ar  
    15    32    28 1   
    16    32     2 1   
    17    26     9 1   
    18    11     2 1   
    19    11     7 1   
    20     3    28 1   
    21     3    12 ar  
    22     5    20 ar  
    23     9     7 1   
    24     2    33 2   
    25    25    12 ar  
    26    25     1 1   
    27    15    16 ar  
    28    20    16 ar  
    29    19     1 ar  
    30    19    23 ar  
    31     1    18 ar  
    32    23     4 ar  
    33    18    22 ar  
    34     4    22 ar  
    35     4    31 1   
    36    34     6 2   
    37    31     6 1   
    38     6    35 1   
    39    35    69 1   
    40     7    68 1   
    41     7    71 1   
    42     8    36 1   
    43     8    37 1   
    44     9    38 1   
    45     9    39 1   
    46    10    40 1   
    47    10    41 1   
    48    11    42 1   
    49    12    43 1   
    50    13    44 1   
    51    14    45 1   
    52    14    46 1   
    53    15    47 1   
    54    16    48 1   
    55    17    49 1   
    56    18    50 1   
    57    19    51 1   
    58    20    52 1   
    59    21    53 1   
    60    22    54 1   
    61    23    55 1   
    62    24    56 1   
    63    26    57 1   
    64    69    58 1   
    65    69    59 1   
    66    69    60 1   
    67    27    61 1   
    68    27    62 1   
    69    28    63 1   
    70    30    64 1   
    71    30    65 1   
    72    31    66 1   
    73    32    67 1   
    74    70    30 1   
@<TRIPOS>SUBSTRUCTURE
     1 5ST         1 TEMP              0 ****  ****    0 ROOT
