@<TRIPOS>MOLECULE
5ST
   71    74     1     0     0
SMALL
bcc


@<TRIPOS>ATOM
      1 C13          0.0000     0.0000     0.0000 cp         1 5ST      -0.075000
      2 C18         -5.8700     1.8760    -2.5930 c          1 5ST       0.572100
      3 C17         -2.7910     0.0140    -2.5210 ca         1 5ST       0.362600
      4 C16          1.3870    -0.0010     2.3980 ca         1 5ST      -0.051400
      5 C15         -6.2910    -1.2120    -3.3790 ca         1 5ST      -0.080300
      6 C19          3.2700     0.6360     3.7020 c          1 5ST       0.660100
      7 C20         -6.6940     3.0050    -4.6410 c3         1 5ST      -0.013400
      8 C21         -7.6090     3.6320    -2.4020 c3         1 5ST      -0.013400
      9 C22         -7.1900     4.3350    -5.2150 c3         1 5ST      -0.021400
     10 C23         -8.1050     4.9610    -2.9770 c3         1 5ST      -0.021400
     11 C24         -6.3580     3.1840    -3.1590 c3         1 5ST      -0.125700
     12 C11         -2.1410     0.0060    -1.3050 ca         1 5ST      -0.308300
     13 C12         -0.7930     0.0250    -3.6770 ca         1 5ST       0.457200
     14 C27         -4.7870    -1.1370    -3.4400 c3         1 5ST       0.020900
     15 C1          -9.0500    -1.3510    -3.2670 ca         1 5ST      -0.097000
     16 C2          -8.4350    -0.5690    -4.2280 ca         1 5ST      -0.097000
     17 C3          -8.2840    -2.0710    -2.3700 ca         1 5ST      -0.097000
     18 C4           1.3940     0.0000     0.0000 ca         1 5ST      -0.049500
     19 C5          -0.6950    -0.0010     1.2080 ca         1 5ST      -0.049500
     20 C6          -7.0560    -0.5000    -4.2840 ca         1 5ST      -0.095500
     21 C7          -6.9050    -1.9980    -2.4230 ca         1 5ST      -0.095500
     22 C8           2.0830     0.0000     1.1940 ca         1 5ST      -0.134000
     23 C9          -0.0030    -0.0010     2.4000 ca         1 5ST      -0.134000
     24 C10         -0.0640     0.0140    -2.5060 ca         1 5ST      -0.261300
     25 C14         -0.7420     0.0070    -1.2840 cp         1 5ST       0.083000
     26 C25         -8.4420     4.7820    -4.4580 c3         1 5ST      -0.071700
     27 C28         -8.9370     6.1100    -5.0320 c3         1 5ST      -0.051200
     28 C29         -4.2980     0.0140    -2.5580 c3         1 5ST      -0.028600
     29 N30         -2.1130     0.0250    -3.6530 nb         1 5ST      -0.641000
     30 N31         -9.3730     5.9120    -6.4210 nz         1 5ST       0.014400
     31 N32          2.0870    -0.0030     3.6080 ns         1 5ST       0.001900
     32 N33         -4.7730     1.2870    -3.1080 ns         1 5ST      -0.187900
     33 O34         -6.4650     1.3530    -1.6760 o          1 5ST      -0.622100
     34 O35          3.6840     1.2900     2.7650 o          1 5ST      -0.633000
     35 O36          3.9930     0.5510     4.8350 os         1 5ST      -0.429900
     36 H3          -7.3690     3.7600    -1.3540 hc         1 5ST       0.042700
     37 H4          -8.3840     2.8820    -2.5110 hc         1 5ST       0.042700
     38 H5          -6.4170     5.0850    -5.1060 hc         1 5ST       0.020700
     39 H6          -7.4310     4.2060    -6.2640 hc         1 5ST       0.020700
     40 H7          -8.9930     5.2760    -2.4420 hc         1 5ST       0.020700
     41 H8          -7.3300     5.7100    -2.8720 hc         1 5ST       0.020700
     42 H9          -5.5870     3.9380    -3.0550 hc         1 5ST       0.042700
     43 H10         -2.4680     1.0330    -1.4200 ha         1 5ST       0.164000
     44 H11         -0.2760     0.0320    -4.6290 h4         1 5ST      -0.015900
     45 H12         -4.3640    -2.0690    -3.0850 hc         1 5ST       0.036700
     46 H13         -4.4760    -0.9660    -4.4630 hc         1 5ST       0.036700
     47 H14        -10.1310    -1.4070    -3.2250 ha         1 5ST       0.102000
     48 H15         -9.0350    -0.0070    -4.9340 ha         1 5ST       0.096000
     49 H16         -8.7650    -2.6860    -1.6190 ha         1 5ST       0.096000
     50 H17          1.9360    -0.0410    -0.9370 ha         1 5ST       0.116500
     51 H18         -1.7610     0.0070     1.4000 ha         1 5ST       0.116500
     52 H19         -6.5740     0.1130    -5.0360 ha         1 5ST       0.102500
     53 H20         -6.3060    -2.5630    -1.7190 ha         1 5ST       0.102500
     54 H21          3.1650    -0.0450     1.1950 ha         1 5ST       0.130500
     55 H22         -0.6410    -0.0070     3.2760 ha         1 5ST       0.130500
     56 H23          1.0190     0.0140    -2.5330 ha         1 5ST       0.133000
     57 H24         -9.2130     4.0290    -4.5630 hc         1 5ST       0.049700
     58 H25          4.5530     1.7160     4.1780 h1         1 5ST       0.048367
     59 H26          5.4420     1.8310     5.7710 h1         1 5ST       0.048367
     60 H27          6.0880     0.7480     4.4030 h1         1 5ST       0.048367
     61 H28         -9.7690     6.4720    -4.4410 hx         1 5ST       0.083200
     62 H29         -8.1340     6.8370    -5.0070 hx         1 5ST       0.083200
     63 H30         -4.6830    -0.1120    -1.5540 h1         1 5ST       0.087700
     64 H31         -8.7820     5.1090    -6.5030 hn         1 5ST       0.244133
     65 H32        -10.3450     5.6840    -6.4910 hn         1 5ST       0.244133
     66 H34          1.7270    -0.5060     4.3940 hn         1 5ST       0.175500
     67 H35         -4.2560     1.7420    -3.8340 hn         1 5ST       0.178500
     68 H1          -7.4690     2.2560    -4.7470 hc         1 5ST       0.042700
     69 C26          5.2560     1.2640     4.8670 c3         1 5ST       0.135700
     70 H313        -9.0930     6.6600    -7.0240 hn         1 5ST       0.244133
     71 H2          -5.8060     2.6910    -5.1760 hc         1 5ST       0.042700
@<TRIPOS>BOND
     1     1    18 ar  
     2     1    19 ar  
     3     1    25 1   
     4     2    11 1   
     5     2    32 1   
     6     2    33 2   
     7     3    12 ar  
     8     3    28 1   
     9     3    29 ar  
    10     4    22 ar  
    11     4    23 ar  
    12     4    31 1   
    13     5    14 1   
    14     5    20 ar  
    15     5    21 ar  
    16     6    31 1   
    17     6    34 2   
    18     6    35 1   
    19     7     9 1   
    20     7    11 1   
    21     7    68 1   
    22     7    71 1   
    23     8    10 1   
    24     8    11 1   
    25     8    36 1   
    26     8    37 1   
    27     9    26 1   
    28     9    38 1   
    29     9    39 1   
    30    10    26 1   
    31    10    40 1   
    32    10    41 1   
    33    11    42 1   
    34    12    25 ar  
    35    12    43 1   
    36    13    24 ar  
    37    13    29 ar  
    38    13    44 1   
    39    14    28 1   
    40    14    45 1   
    41    14    46 1   
    42    15    16 ar  
    43    15    17 ar  
    44    15    47 1   
    45    16    20 ar  
    46    16    48 1   
    47    17    21 ar  
    48    17    49 1   
    49    18    22 ar  
    50    18    50 1   
    51    19    23 ar  
    52    19    51 1   
    53    20    52 1   
    54    21    53 1   
    55    22    54 1   
    56    23    55 1   
    57    24    25 ar  
    58    24    56 1   
    59    26    27 1   
    60    26    57 1   
    61    27    30 1   
    62    27    61 1   
    63    27    62 1   
    64    28    32 1   
    65    28    63 1   
    66    30    64 1   
    67    30    65 1   
    68    30    70 1   
    69    31    66 1   
    70    32    67 1   
    71    35    69 1   
    72    58    69 1   
    73    59    69 1   
    74    60    69 1   
@<TRIPOS>SUBSTRUCTURE
     1 5ST         1 TEMP              0 ****  ****    0 ROOT
