@<TRIPOS>MOLECULE
molecule
   68    72     1     0     0
SMALL
bcc


@<TRIPOS>ATOM
      1 C18          0.0000     0.0000     0.0000 c          1 5SU       0.662300
      2 C16          1.4550    -2.3480     1.7590 ca         1 5SU      -0.078300
      3 C15          2.6120    -1.4070     1.5500 c3         1 5SU      -0.044100
      4 C20          0.9360    -2.5350     3.0260 ca         1 5SU      -0.117500
      5 C21         -0.1300    -3.3950     3.2180 ca         1 5SU      -0.124000
      6 C22         -0.6770    -4.0670     2.1410 ca         1 5SU      -0.127000
      7 C23         -0.1580    -3.8800     0.8730 ca         1 5SU      -0.124000
      8 C24          0.9090    -3.0210     0.6830 ca         1 5SU      -0.117500
      9 C11          4.5630     6.3830     4.4270 ca         1 5SU       0.078600
     10 C12          5.5670     6.1370     3.4990 ca         1 5SU      -0.143000
     11 C34         -4.2070     0.0280    -4.9410 ca         1 5SU      -0.107000
     12 C33         -4.8640     0.3570    -3.7720 ca         1 5SU      -0.121000
     13 C1           3.2350     0.9650     1.1800 ca         1 5SU       0.406600
     14 N2           4.1980     0.7500     0.3050 nb         1 5SU      -0.702000
     15 C3           5.2280     1.5660     0.1840 ca         1 5SU       0.423200
     16 C4           5.3400     2.6890     0.9770 ca         1 5SU      -0.249300
     17 C5           4.3410     2.9550     1.9190 cp         1 5SU       0.011000
     18 C6           3.2670     2.0650     2.0130 ca         1 5SU      -0.228300
     19 C7           4.4180     4.1500     2.7930 cp         1 5SU      -0.066000
     20 C8           5.4980     5.0270     2.6850 ca         1 5SU      -0.094000
     21 C9           3.4890     5.5080     4.5420 ca         1 5SU      -0.143000
     22 C10          3.4150     4.3960     3.7300 ca         1 5SU      -0.094000
     23 C14          2.0810     0.0000     1.2680 c3         1 5SU       0.078400
     24 N17          1.3480     0.0000     0.0000 ns         1 5SU      -0.568900
     25 O19         -0.6080     0.0010     1.0550 o          1 5SU      -0.602100
     26 C25          3.5100     8.1680     5.5940 c          1 5SU       0.750100
     27 O26          2.4270     7.7340     5.2580 o          1 5SU      -0.594000
     28 O27          3.5890     9.3060     6.3090 os         1 5SU      -0.438900
     29 C28          2.3370     9.9620     6.6420 c3         1 5SU       0.158700
     30 C29         -0.7320     0.0050    -1.2660 ce         1 5SU      -0.221200
     31 C30         -2.0810     0.0120    -1.2660 cf         1 5SU      -0.040200
     32 C31         -2.8180     0.0170    -2.5380 ca         1 5SU      -0.036800
     33 C32         -4.1800     0.3540    -2.5660 ca         1 5SU       0.016800
     34 C35         -2.8610    -0.3060    -4.9200 ca         1 5SU       0.034400
     35 C36         -2.1630    -0.3080    -3.7310 ca         1 5SU      -0.104000
     36 N37         -4.8460     0.6870    -1.3800 na         1 5SU      -0.008500
     37 C38         -6.0580     0.2540    -0.9710 cc         1 5SU       0.411400
     38 N39         -6.2960     0.8090     0.1900 nd         1 5SU      -0.409000
     39 N40         -5.3170     1.5620     0.5410 nd         1 5SU       0.002000
     40 N41         -4.3920     1.5380    -0.3570 nc         1 5SU      -0.197800
     41 Cl4         -2.0510    -0.7220    -6.3980 cl         1 5SU      -0.089400
     42 H53          3.2050    -1.7450     0.7080 hc         1 5SU       0.061200
     43 H52          3.2280    -1.3880     2.4410 hc         1 5SU       0.061200
     44 H55          1.3640    -2.0080     3.8700 ha         1 5SU       0.126000
     45 H56         -0.5360    -3.5410     4.2110 ha         1 5SU       0.126000
     46 H57         -1.5120    -4.7400     2.2910 ha         1 5SU       0.126000
     47 H58         -0.5870    -4.4070     0.0300 ha         1 5SU       0.126000
     48 H59          1.3150    -2.8750    -0.3110 ha         1 5SU       0.126000
     49 H49          6.4040     6.8200     3.4140 ha         1 5SU       0.153500
     50 H66         -4.7460     0.0290    -5.8800 ha         1 5SU       0.156000
     51 H65         -5.9160     0.6160    -3.7970 ha         1 5SU       0.149000
     52 H43          5.9970     1.3510    -0.5490 h4         1 5SU       0.023100
     53 H44          6.1890     3.3540     0.8720 ha         1 5SU       0.141000
     54 H45          2.4730     2.2350     2.7300 ha         1 5SU       0.150000
     55 H46          6.2810     4.8360     1.9610 ha         1 5SU       0.139000
     56 H47          2.7080     5.7000     5.2680 ha         1 5SU       0.153500
     57 H48          2.5780     3.7150     3.8190 ha         1 5SU       0.139000
     58 H50          5.5200     7.8110     5.6100 hn         1 5SU       0.335500
     59 H51          1.4170     0.3030     2.0690 h1         1 5SU       0.099700
     60 H54          1.8480     0.0290    -0.8670 hn         1 5SU       0.324500
     61 H62          1.7510     9.3170     7.2850 h1         1 5SU       0.052700
     62 H61          1.7830    10.1660     5.7340 h1         1 5SU       0.052700
     63 H60          2.5430    10.8930     7.1560 h1         1 5SU       0.052700
     64 H63         -0.1910     0.0040    -2.2050 ha         1 5SU       0.126000
     65 H64         -2.6230     0.0130    -0.3270 ha         1 5SU       0.179000
     66 H67         -1.1120    -0.5690    -3.7190 ha         1 5SU       0.159000
     67 H68         -6.7120    -0.4250    -1.5040 h5         1 5SU       0.082100
     68 N13          4.6360     7.5090     5.2520 ns         1 5SU      -0.464100
@<TRIPOS>BOND
     1    37    38 2
     2    37    36 1
     3    12    11 ar
     4    12    33 ar
     5    11    34 ar
     6    38    39 1
     7    36    33 1
     8    36    40 1
     9    41    34 1
    10    33    32 ar
    11    34    35 ar
    12    39    40 2
    13    35    32 ar
    14    32    31 1
    15    31    30 2
    16    30     1 1
    17    24     1 1
    18    24    23 1
    19     3    23 1
    20     3     2 1
    21     1    25 2
    22    14    15 ar
    23    14    13 ar
    24     4     2 ar
    25     4     5 ar
    26    23    13 1
    27    15    16 ar
    28     2     8 ar
    29    13    18 ar
    30     5     6 ar
    31    16    17 ar
    32     8     7 ar
    33    18    17 ar
    34     6     7 ar
    35    17    19 1
    36    19    20 ar
    37    19    22 ar
    38    20    10 ar
    39    22    21 ar
    40    10     9 ar
    41    21     9 ar
    42     9    68 1
    43    68    26 1
    44    27    26 2
    45    26    28 1
    46    28    29 1
    47     3    42 1
    48     3    43 1
    49     4    44 1
    50     5    45 1
    51     6    46 1
    52     7    47 1
    53     8    48 1
    54    10    49 1
    55    11    50 1
    56    12    51 1
    57    15    52 1
    58    16    53 1
    59    18    54 1
    60    20    55 1
    61    21    56 1
    62    22    57 1
    63    68    58 1
    64    23    59 1
    65    24    60 1
    66    29    61 1
    67    29    62 1
    68    29    63 1
    69    30    64 1
    70    31    65 1
    71    35    66 1
    72    37    67 1
@<TRIPOS>SUBSTRUCTURE
     1 5SU         1 TEMP              0 ****  ****    0 ROOT
