@<TRIPOS>MOLECULE
5SU
   68    74     1     0     0
SMALL
bcc


@<TRIPOS>ATOM
      1 C18          0.0000     0.0000     0.0000 c3         1 5SU       0.336000
      2 C16          1.4550    -2.3480     1.7590 ca         1 5SU      -0.086000
      3 C15          2.6120    -1.4070     1.5500 c3         1 5SU      -0.065000
      4 C20          0.9360    -2.5350     3.0260 ca         1 5SU      -0.093000
      5 C21         -0.1300    -3.3950     3.2180 ca         1 5SU      -0.093500
      6 C22         -0.6770    -4.0670     2.1410 ca         1 5SU      -0.098000
      7 C23         -0.1580    -3.8800     0.8730 ca         1 5SU      -0.093500
      8 C24          0.9090    -3.0210     0.6830 ca         1 5SU      -0.093000
      9 C11          4.5630     6.3830     4.4270 ca         1 5SU      -0.068000
     10 C12          5.5670     6.1370     3.4990 ca         1 5SU      -0.115500
     11 C34         -4.2070     0.0280    -4.9410 c2         1 5SU      -0.141000
     12 C33         -4.8640     0.3570    -3.7720 c2         1 5SU      -0.034000
     13 C1           3.2350     0.9650     1.1800 c2         1 5SU      -0.075000
     14 N2           4.1980     0.7500     0.3050 n2         1 5SU      -0.057000
     15 C3           5.2280     1.5660     0.1840 c2         1 5SU      -0.058000
     16 C4           5.3400     2.6890     0.9770 c2         1 5SU      -0.155000
     17 C5           4.3410     2.9550     1.9190 c2         1 5SU       0.015000
     18 C6           3.2670     2.0650     2.0130 c2         1 5SU      -0.134000
     19 C7           4.4180     4.1500     2.7930 ca         1 5SU      -0.063000
     20 C8           5.4980     5.0270     2.6850 ca         1 5SU      -0.070500
     21 C9           3.4890     5.5080     4.5420 ca         1 5SU      -0.115500
     22 C10          3.4150     4.3960     3.7300 ca         1 5SU      -0.070500
     23 C14          2.0810     0.0000     1.2680 c3         1 5SU      -0.005000
     24 N17          1.3480     0.0000     0.0000 n7         1 5SU      -0.009000
     25 O19         -0.6080     0.0010     1.0550 o          1 5SU      -0.413000
     26 C25          3.5100     8.1680     5.5940 c2         1 5SU       0.322000
     27 O26          2.4270     7.7340     5.2580 o          1 5SU      -0.454000
     28 O27          3.5890     9.3060     6.3090 os         1 5SU      -0.266000
     29 C28          2.3370     9.9620     6.6420 c3         1 5SU       0.098000
     30 C29         -0.7320     0.0050    -1.2660 c2         1 5SU      -0.160000
     31 C30         -2.0810     0.0120    -1.2660 c2         1 5SU       0.061000
     32 C31         -2.8180     0.0170    -2.5380 c3         1 5SU       0.082000
     33 C32         -4.1800     0.3540    -2.5660 c2         1 5SU      -0.205000
     34 C35         -2.8610    -0.3060    -4.9200 c2         1 5SU      -0.060000
     35 C36         -2.1630    -0.3080    -3.7310 c2         1 5SU      -0.162000
     36 N37         -4.8460     0.6870    -1.3800 na         1 5SU       0.347000
     37 C38         -6.0580     0.2540    -0.9710 c2         1 5SU      -0.231000
     38 N39         -6.2960     0.8090     0.1900 n2         1 5SU      -0.129000
     39 N40         -5.3170     1.5620     0.5410 n2         1 5SU       0.040000
     40 N41         -4.3920     1.5380    -0.3570 n2         1 5SU      -0.239000
     41 Cl4         -2.0510    -0.7220    -6.3980 cl         1 5SU       0.075000
     42 H53          3.2050    -1.7450     0.7080 hc         1 5SU       0.070500
     43 H52          3.2280    -1.3880     2.4410 hc         1 5SU       0.070500
     44 H55          1.3640    -2.0080     3.8700 ha         1 5SU       0.102000
     45 H56         -0.5360    -3.5410     4.2110 ha         1 5SU       0.100500
     46 H57         -1.5120    -4.7400     2.2910 ha         1 5SU       0.100000
     47 H58         -0.5870    -4.4070     0.0300 ha         1 5SU       0.100500
     48 H59          1.3150    -2.8750    -0.3110 ha         1 5SU       0.102000
     49 H49          6.4040     6.8200     3.4140 ha         1 5SU       0.129500
     50 H66         -4.7460     0.0290    -5.8800 ha         1 5SU       0.125000
     51 H65         -5.9160     0.6160    -3.7970 ha         1 5SU       0.115000
     52 H43          5.9970     1.3510    -0.5490 h4         1 5SU       0.118000
     53 H44          6.1890     3.3540     0.8720 ha         1 5SU       0.122000
     54 H45          2.4730     2.2350     2.7300 ha         1 5SU       0.132000
     55 H46          6.2810     4.8360     1.9610 ha         1 5SU       0.113000
     56 H47          2.7080     5.7000     5.2680 ha         1 5SU       0.129500
     57 H48          2.5780     3.7150     3.8190 ha         1 5SU       0.113000
     58 H50          5.5200     7.8090     5.6130 hn         1 5SU       0.084000
     59 H51          1.4170     0.3030     2.0690 h1         1 5SU       0.114000
     60 H54          1.8480     0.0240    -0.8670 hn         1 5SU       0.104000
     61 H62          1.7510     9.3170     7.2850 h1         1 5SU       0.041333
     62 H61          2.5430    10.8930     7.1560 h1         1 5SU       0.041333
     63 H60          1.7830    10.1660     5.7340 h1         1 5SU       0.041333
     64 H63         -0.5820     0.8780    -0.6430 DU         1 5SU       0.054000
     65 H64         -2.2230     0.8880    -1.8870 DU         1 5SU       0.062000
     66 H67         -1.1120    -0.5690    -3.7190 ha         1 5SU       0.143000
     67 H68         -6.7120    -0.4250    -1.5040 h5         1 5SU       0.173000
     68 N13          4.6360     7.5090     5.2520 ns         1 5SU       0.136000
@<TRIPOS>BOND
     1     1    24 1   
     2     1    25 1   
     3     1    30 1   
     4     1    64 1   
     5     2     3 1   
     6     2     4 1   
     7     2     8 1   
     8     3    23 1   
     9     3    42 1   
    10     3    43 1   
    11     4     5 1   
    12     4    44 1   
    13     5     6 1   
    14     5    45 1   
    15     6     7 1   
    16     6    46 1   
    17     7     8 1   
    18     7    47 1   
    19     8    48 1   
    20     9    10 1   
    21     9    21 1   
    22     9    68 1   
    23    10    20 1   
    24    10    49 1   
    25    11    12 1   
    26    11    34 1   
    27    11    50 1   
    28    12    33 1   
    29    12    51 1   
    30    13    14 1   
    31    13    18 1   
    32    13    23 1   
    33    14    15 1   
    34    15    16 1   
    35    15    52 1   
    36    16    17 1   
    37    16    53 1   
    38    17    18 1   
    39    17    19 1   
    40    18    54 1   
    41    19    20 1   
    42    19    22 1   
    43    20    55 1   
    44    21    22 1   
    45    21    56 1   
    46    22    57 1   
    47    23    24 1   
    48    23    59 1   
    49    24    60 1   
    50    26    27 1   
    51    26    28 1   
    52    26    68 1   
    53    28    29 1   
    54    29    61 1   
    55    29    62 1   
    56    29    63 1   
    57    30    31 1   
    58    30    64 1   
    59    31    32 1   
    60    31    65 1   
    61    32    33 1   
    62    32    35 1   
    63    32    65 1   
    64    33    36 1   
    65    34    35 1   
    66    34    41 1   
    67    35    66 1   
    68    36    37 1   
    69    36    40 1   
    70    37    38 1   
    71    37    67 1   
    72    38    39 1   
    73    39    40 1   
    74    58    68 1   
@<TRIPOS>SUBSTRUCTURE
     1 5SU         1 TEMP              0 ****  ****    0 ROOT
