@<TRIPOS>MOLECULE
5SV
   96    98     1     0     0
SMALL
bcc


@<TRIPOS>ATOM
      1 C2           0.0000     0.0000     0.0000 ca         1 5SV       0.669900
      2 C4          -0.1050    -0.0050     2.2970 ca         1 5SV       0.264800
      3 C6           2.0090     0.0000     1.1370 ca         1 5SV       0.586200
      4 C5           1.2990    -0.0110     2.3490 ca         1 5SV      -0.240200
      5 N1           1.3210     0.0000     0.0000 nb         1 5SV      -0.757000
      6 N3          -0.7070     0.0010     1.1110 nb         1 5SV      -0.658000
      7 C8           0.5750    -0.0120     4.3940 cc         1 5SV       0.272700
      8 C9          -1.9390     2.5980    11.6130 c3         1 5SV       0.317400
      9 C10         -1.6520     4.0970    11.7300 c3         1 5SV      -0.055400
     10 C11         -1.2780     4.4320    13.1760 c3         1 5SV      -0.025400
     11 C12         -0.9920     5.9310    13.2940 c3         1 5SV      -0.029400
     12 C13         -0.6170     6.2670    14.7390 c3         1 5SV      -0.030400
     13 C14         -0.3310     7.7650    14.8560 c3         1 5SV      -0.029400
     14 C15          0.0440     8.1000    16.3020 c3         1 5SV      -0.029400
     15 O2P         -4.0090     0.3110    10.4990 o          1 5SV      -0.671000
     16 P           -2.6540     0.7960     9.7760 p5         1 5SV       0.935800
     17 O1P         -1.5500    -0.1250    10.1300 o          1 5SV      -0.671000
     18 O5'         -2.8670     0.7900     8.1800 os         1 5SV      -0.493200
     19 C5'         -3.1010    -0.4040     7.4300 c3         1 5SV       0.311400
     20 C4'         -3.2580    -0.0530     5.9490 c3         1 5SV       0.140100
     21 O4'         -2.0110     0.4380     5.4280 os         1 5SV      -0.374600
     22 C3'         -3.6260    -1.3170     5.1480 c3         1 5SV       0.126100
     23 O3'         -4.8870    -1.1460     4.4980 oh         1 5SV      -0.560800
     24 C2'         -2.4910    -1.4470     4.1010 c3         1 5SV       0.123100
     25 O2'         -3.0140    -1.8320     2.8290 oh         1 5SV      -0.546800
     26 C1'         -1.9250     0.0000     4.0550 c3         1 5SV       0.140800
     27 N9          -0.5330    -0.0060     3.6000 na         1 5SV       0.223000
     28 N7           1.6490    -0.0150     3.6580 nd         1 5SV      -0.522100
     29 N6           3.3930    -0.0060     1.1260 nv         1 5SV      -0.497500
     30 O3P         -2.2880     2.2850    10.2630 os         1 5SV      -0.501200
     31 C16          0.3300     9.5990    16.4200 c3         1 5SV      -0.029400
     32 C17          0.7050     9.9340    17.8640 c3         1 5SV      -0.029400
     33 C18          0.9920    11.4320    17.9820 c3         1 5SV      -0.029400
     34 C19          1.3660    11.7680    19.4280 c3         1 5SV      -0.029400
     35 C20          1.6520    13.2660    19.5450 c3         1 5SV      -0.029400
     36 C21          2.0270    13.6020    20.9900 c3         1 5SV      -0.029400
     37 C22          2.3130    15.1000    21.1080 c3         1 5SV      -0.029400
     38 C23          2.6870    15.4350    22.5530 c3         1 5SV      -0.029400
     39 C24          2.9740    16.9340    22.6700 c3         1 5SV      -0.029400
     40 H1          -0.5210    -0.0000    -0.9500 h5         1 5SV      -0.010900
     41 H2           0.5640    -0.0130     5.4770 h5         1 5SV       0.056800
     42 H3          -2.7600     2.3360    12.2690 h1         1 5SV      -0.019300
     43 H4          -1.0560     2.0380    11.8980 h1         1 5SV      -0.019300
     44 H5          -2.5350     4.6570    11.4460 hc         1 5SV       0.012200
     45 H6          -0.8310     4.3600    11.0740 hc         1 5SV       0.012200
     46 H7          -0.3950     3.8730    13.4590 hc         1 5SV       0.010700
     47 H8          -2.0980     4.1690    13.8320 hc         1 5SV       0.010700
     48 H9          -1.8750     6.4910    13.0100 hc         1 5SV       0.011700
     49 H10         -0.1710     6.1950    12.6380 hc         1 5SV       0.011700
     50 H11         -1.4380     6.0040    15.3950 hc         1 5SV       0.012700
     51 H12          0.2660     5.7070    15.0230 hc         1 5SV       0.012700
     52 H13          0.4900     8.0280    14.2000 hc         1 5SV       0.012700
     53 H14         -1.2130     8.3250    14.5720 hc         1 5SV       0.012700
     54 H15          0.9270     7.5410    16.5850 hc         1 5SV       0.013700
     55 H16         -0.7770     7.8370    16.9580 hc         1 5SV       0.013700
     56 H18         -2.2620    -1.0790     7.5540 h1         1 5SV      -0.010300
     57 H19         -4.0050    -0.8820     7.7860 h1         1 5SV      -0.010300
     58 H20         -4.0290     0.6970     5.8230 h1         1 5SV       0.045700
     59 H21         -3.6410    -2.1840     5.7970 h1         1 5SV       0.017700
     60 H22         -5.4870    -1.8110     4.7950 ho         1 5SV       0.385000
     61 H23         -1.7350    -2.1430     4.4420 h1         1 5SV       0.019700
     62 H24         -2.9230    -2.7640     2.7210 ho         1 5SV       0.381000
     63 H25         -2.5380     0.6260     3.4180 h2         1 5SV       0.064700
     64 H26          3.8860    -0.0000     0.2560 hn         1 5SV       0.272800
     65 H27          3.9000    -0.0080     1.9890 hn         1 5SV       0.272800
     66 H28          1.1500     9.8630    15.7630 hc         1 5SV       0.013700
     67 H29         -0.5530    10.1590    16.1370 hc         1 5SV       0.013700
     68 H30         -0.1160     9.6710    18.5200 hc         1 5SV       0.013700
     69 H31          1.5880     9.3740    18.1470 hc         1 5SV       0.013700
     70 H32          0.1090    11.9920    17.6990 hc         1 5SV       0.013700
     71 H33          1.8120    11.6960    17.3260 hc         1 5SV       0.013700
     72 H34          0.5450    11.5040    20.0840 hc         1 5SV       0.014700
     73 H35          2.2490    11.2080    19.7110 hc         1 5SV       0.014700
     74 H36          0.7690    13.8250    19.2620 hc         1 5SV       0.014700
     75 H37          2.4720    13.5290    18.8890 hc         1 5SV       0.014700
     76 H38          2.9100    13.0420    21.2730 hc         1 5SV       0.014700
     77 H39          1.2070    13.3380    21.6470 hc         1 5SV       0.014700
     78 H40          3.1340    15.3640    20.4520 hc         1 5SV       0.014700
     79 H41          1.4300    15.6600    20.8250 hc         1 5SV       0.014700
     80 H42          1.8660    15.1720    23.2090 hc         1 5SV       0.014700
     81 H43          3.7950    17.1980    22.0140 hc         1 5SV       0.014700
     82 H44          2.0910    17.4940    22.3870 hc         1 5SV       0.014700
     83 C25          3.3480    17.2700    24.1160 c3         1 5SV      -0.029400
     84 C26          3.6350    18.7670    24.2340 c3         1 5SV      -0.030400
     85 C27          4.0090    19.1030    25.6790 c3         1 5SV      -0.028400
     86 C28          4.2960    20.6020    25.7970 c3         1 5SV       0.005900
     87 H45          3.5700    14.8750    22.8360 hc         1 5SV       0.014700
     88 H46          4.2310    16.7100    24.4000 hc         1 5SV       0.014700
     89 H47          2.5270    17.0070    24.7720 hc         1 5SV       0.014700
     90 H48          2.7520    19.3270    23.9490 hc         1 5SV       0.014700
     91 H49          4.4560    19.0300    23.5780 hc         1 5SV       0.014700
     92 H50          4.8910    18.5430    25.9630 hc         1 5SV       0.011700
     93 H51          3.1870    18.8410    26.3340 hc         1 5SV       0.011700
     94 H52          3.4160    21.1620    25.5070 hc         1 5SV      -0.000300
     95 H53          5.1210    20.8640    25.1450 hc         1 5SV      -0.000300
     96 H54          4.5550    20.8400    26.8210 hc         1 5SV      -0.000300
@<TRIPOS>BOND
     1     1     5 ar  
     2     1     6 ar  
     3     1    40 1   
     4     2     4 ar  
     5     2     6 ar  
     6     2    27 1   
     7     3     4 ar  
     8     3     5 ar  
     9     3    29 1   
    10     4    28 1   
    11     7    27 1   
    12     7    28 2   
    13     7    41 1   
    14     8     9 1   
    15     8    30 1   
    16     8    42 1   
    17     8    43 1   
    18     9    10 1   
    19     9    44 1   
    20     9    45 1   
    21    10    11 1   
    22    10    46 1   
    23    10    47 1   
    24    11    12 1   
    25    11    48 1   
    26    11    49 1   
    27    12    13 1   
    28    12    50 1   
    29    12    51 1   
    30    13    14 1   
    31    13    52 1   
    32    13    53 1   
    33    14    31 1   
    34    14    54 1   
    35    14    55 1   
    36    15    16 1   
    37    16    17 1   
    38    16    18 1   
    39    16    30 1   
    40    18    19 1   
    41    19    20 1   
    42    19    56 1   
    43    19    57 1   
    44    20    21 1   
    45    20    22 1   
    46    20    58 1   
    47    21    26 1   
    48    22    23 1   
    49    22    24 1   
    50    22    59 1   
    51    23    60 1   
    52    24    25 1   
    53    24    26 1   
    54    24    61 1   
    55    25    62 1   
    56    26    27 1   
    57    26    63 1   
    58    29    64 1   
    59    29    65 1   
    60    31    32 1   
    61    31    66 1   
    62    31    67 1   
    63    32    33 1   
    64    32    68 1   
    65    32    69 1   
    66    33    34 1   
    67    33    70 1   
    68    33    71 1   
    69    34    35 1   
    70    34    72 1   
    71    34    73 1   
    72    35    36 1   
    73    35    74 1   
    74    35    75 1   
    75    36    37 1   
    76    36    76 1   
    77    36    77 1   
    78    37    38 1   
    79    37    78 1   
    80    37    79 1   
    81    38    39 1   
    82    38    80 1   
    83    38    87 1   
    84    39    81 1   
    85    39    82 1   
    86    39    83 1   
    87    83    84 1   
    88    83    88 1   
    89    83    89 1   
    90    84    85 1   
    91    84    90 1   
    92    84    91 1   
    93    85    86 1   
    94    85    92 1   
    95    85    93 1   
    96    86    94 1   
    97    86    95 1   
    98    86    96 1   
@<TRIPOS>SUBSTRUCTURE
     1 5SV         1 TEMP              0 ****  ****    0 ROOT
