@<TRIPOS>MOLECULE
molecule
   96    98     1     0     0
SMALL
bcc


@<TRIPOS>ATOM
      1 C2           0.0000     0.0000     0.0000 ca         1 5SV       0.723900
      2 C4          -0.1050    -0.0050     2.2970 ca         1 5SV       0.473800
      3 C6           2.0090     0.0000     1.1370 ca         1 5SV       0.779200
      4 C5           1.2990    -0.0110     2.3490 ca         1 5SV      -0.209200
      5 N1           1.3210     0.0000     0.0000 nb         1 5SV      -0.847000
      6 N3          -0.7070     0.0010     1.1110 nb         1 5SV      -0.774000
      7 C8           0.5750    -0.0120     4.3940 cc         1 5SV       0.448700
      8 C9          -1.9390     2.5980    11.6130 c3         1 5SV       0.230400
      9 C10         -1.6520     4.0970    11.7300 c3         1 5SV      -0.091400
     10 C11         -1.2780     4.4320    13.1760 c3         1 5SV      -0.082400
     11 C12         -0.9920     5.9310    13.2940 c3         1 5SV      -0.080400
     12 C13         -0.6170     6.2670    14.7390 c3         1 5SV      -0.082400
     13 C14         -0.3310     7.7650    14.8560 c3         1 5SV      -0.082400
     14 C15          0.0440     8.1000    16.3020 c3         1 5SV      -0.082400
     15 O2P         -4.0090     0.3110    10.4990 o          1 5SV      -0.827500
     16 P           -2.6540     0.7960     9.7760 p5         1 5SV       1.367800
     17 O1P         -1.5500    -0.1250    10.1300 o          1 5SV      -0.827500
     18 O5'         -2.8670     0.7900     8.1800 os         1 5SV      -0.591200
     19 C5'         -3.1010    -0.4040     7.4300 c3         1 5SV       0.233400
     20 C4'         -3.2580    -0.0530     5.9490 c3         1 5SV       0.118100
     21 O4'         -2.0110     0.4380     5.4280 os         1 5SV      -0.391600
     22 C3'         -3.6260    -1.3170     5.1480 c3         1 5SV       0.084100
     23 O3'         -4.8870    -1.1460     4.4980 oh         1 5SV      -0.579800
     24 C2'         -2.4910    -1.4470     4.1010 c3         1 5SV       0.087100
     25 O2'         -3.0140    -1.8320     2.8290 oh         1 5SV      -0.565800
     26 C1'         -1.9250     0.0000     4.0550 c3         1 5SV       0.255800
     27 N9          -0.5330    -0.0060     3.6000 na         1 5SV      -0.244000
     28 N7           1.6490    -0.0150     3.6580 nd         1 5SV      -0.608100
     29 N6           3.3930    -0.0060     1.1260 nv         1 5SV      -0.992500
     30 O3P         -2.2880     2.2850    10.2630 os         1 5SV      -0.605200
     31 C16          0.3300     9.5990    16.4200 c3         1 5SV      -0.082400
     32 C17          0.7050     9.9340    17.8640 c3         1 5SV      -0.082400
     33 C18          0.9920    11.4320    17.9820 c3         1 5SV      -0.082400
     34 C19          1.3660    11.7680    19.4280 c3         1 5SV      -0.082400
     35 C20          1.6520    13.2660    19.5450 c3         1 5SV      -0.081400
     36 C21          2.0270    13.6020    20.9900 c3         1 5SV      -0.082400
     37 C22          2.3130    15.1000    21.1080 c3         1 5SV      -0.082400
     38 C23          2.6870    15.4350    22.5530 c3         1 5SV      -0.082400
     39 C24          2.9740    16.9340    22.6700 c3         1 5SV      -0.082400
     40 H1          -0.5210    -0.0000    -0.9500 h5         1 5SV       0.054100
     41 H2           0.5640    -0.0130     5.4770 h5         1 5SV       0.105800
     42 H3          -2.7600     2.3360    12.2690 h1         1 5SV       0.028700
     43 H4          -1.0560     2.0380    11.8980 h1         1 5SV       0.028700
     44 H5          -2.5350     4.6570    11.4460 hc         1 5SV       0.044200
     45 H6          -0.8310     4.3600    11.0740 hc         1 5SV       0.044200
     46 H7          -0.3950     3.8730    13.4590 hc         1 5SV       0.039200
     47 H8          -2.0980     4.1690    13.8320 hc         1 5SV       0.039200
     48 H9          -1.8750     6.4910    13.0100 hc         1 5SV       0.038700
     49 H10         -0.1710     6.1950    12.6380 hc         1 5SV       0.038700
     50 H11         -1.4380     6.0040    15.3950 hc         1 5SV       0.039700
     51 H12          0.2660     5.7070    15.0230 hc         1 5SV       0.039700
     52 H13          0.4900     8.0280    14.2000 hc         1 5SV       0.039700
     53 H14         -1.2130     8.3250    14.5720 hc         1 5SV       0.039700
     54 H15          0.9270     7.5410    16.5850 hc         1 5SV       0.039700
     55 H16         -0.7770     7.8370    16.9580 hc         1 5SV       0.039700
     56 H18         -2.2620    -1.0790     7.5540 h1         1 5SV       0.039700
     57 H19         -4.0050    -0.8820     7.7860 h1         1 5SV       0.039700
     58 H20         -4.0290     0.6970     5.8230 h1         1 5SV       0.085700
     59 H21         -3.6410    -2.1840     5.7970 h1         1 5SV       0.052700
     60 H22         -5.4870    -1.8110     4.7950 ho         1 5SV       0.401000
     61 H23         -1.7350    -2.1430     4.4420 h1         1 5SV       0.056700
     62 H24         -2.9230    -2.7640     2.7210 ho         1 5SV       0.397000
     63 H25         -2.5380     0.6260     3.4180 h2         1 5SV       0.106700
     64 H26          3.8860    -0.0000     0.2560 hn         1 5SV       0.445300
     65 H27          3.9000    -0.0080     1.9890 hn         1 5SV       0.445300
     66 H28          1.1500     9.8630    15.7630 hc         1 5SV       0.039700
     67 H29         -0.5530    10.1590    16.1370 hc         1 5SV       0.039700
     68 H30         -0.1160     9.6710    18.5200 hc         1 5SV       0.040700
     69 H31          1.5880     9.3740    18.1470 hc         1 5SV       0.040700
     70 H32          0.1090    11.9920    17.6990 hc         1 5SV       0.040700
     71 H33          1.8120    11.6960    17.3260 hc         1 5SV       0.040700
     72 H34          0.5450    11.5040    20.0840 hc         1 5SV       0.040700
     73 H35          2.2490    11.2080    19.7110 hc         1 5SV       0.040700
     74 H36          0.7690    13.8250    19.2620 hc         1 5SV       0.040700
     75 H37          2.4720    13.5290    18.8890 hc         1 5SV       0.040700
     76 H38          2.9100    13.0420    21.2730 hc         1 5SV       0.040700
     77 H39          1.2070    13.3380    21.6470 hc         1 5SV       0.040700
     78 H40          3.1340    15.3640    20.4520 hc         1 5SV       0.040700
     79 H41          1.4300    15.6600    20.8250 hc         1 5SV       0.040700
     80 H42          1.8660    15.1720    23.2090 hc         1 5SV       0.040700
     81 H43          3.7950    17.1980    22.0140 hc         1 5SV       0.040700
     82 H44          2.0910    17.4940    22.3870 hc         1 5SV       0.040700
     83 C25          3.3480    17.2700    24.1160 c3         1 5SV      -0.082400
     84 C26          3.6350    18.7670    24.2340 c3         1 5SV      -0.082400
     85 C27          4.0090    19.1030    25.6790 c3         1 5SV      -0.084400
     86 C28          4.2960    20.6020    25.7970 c3         1 5SV      -0.092100
     87 H45          3.5700    14.8750    22.8360 hc         1 5SV       0.040700
     88 H46          4.2310    16.7100    24.4000 hc         1 5SV       0.040700
     89 H47          2.5270    17.0070    24.7720 hc         1 5SV       0.040700
     90 H48          2.7520    19.3270    23.9490 hc         1 5SV       0.040700
     91 H49          4.4560    19.0300    23.5780 hc         1 5SV       0.040700
     92 H50          4.8910    18.5430    25.9630 hc         1 5SV       0.039700
     93 H51          3.1870    18.8410    26.3340 hc         1 5SV       0.039700
     94 H52          3.4160    21.1620    25.5070 hc         1 5SV       0.032033
     95 H53          5.1210    20.8640    25.1450 hc         1 5SV       0.032033
     96 H54          4.5550    20.8400    26.8210 hc         1 5SV       0.032033
@<TRIPOS>BOND
     1    39    38 1
     2    38    37 1
     3    37    36 1
     4    36    35 1
     5    35    34 1
     6    34    33 1
     7    33    32 1
     8    32    31 1
     9    31    14 1
    10    14    13 1
    11    13    12 1
    12    12    11 1
    13    11    10 1
    14    10     9 1
    15    29     3 1
    16     9     8 1
    17     8    30 1
    18     3     4 ar
    19     3     5 ar
    20    28     4 1
    21    28     7 2
    22     4     2 ar
    23     5     1 ar
    24     7    27 1
    25    30    16 1
    26     2    27 1
    27     2     6 ar
    28     1     6 ar
    29    17    16 1
    30    27    26 1
    31    16    18 1
    32    16    15 1
    33    19    18 1
    34    19    20 1
    35    26    24 1
    36    26    21 1
    37    22    24 1
    38    22    20 1
    39    22    23 1
    40    24    25 1
    41    21    20 1
    42     1    40 1
    43     7    41 1
    44     8    42 1
    45     8    43 1
    46     9    44 1
    47     9    45 1
    48    10    46 1
    49    10    47 1
    50    11    48 1
    51    11    49 1
    52    12    50 1
    53    12    51 1
    54    13    52 1
    55    13    53 1
    56    14    54 1
    57    14    55 1
    58    19    56 1
    59    19    57 1
    60    20    58 1
    61    22    59 1
    62    23    60 1
    63    24    61 1
    64    25    62 1
    65    26    63 1
    66    29    64 1
    67    29    65 1
    68    31    66 1
    69    31    67 1
    70    32    68 1
    71    32    69 1
    72    33    70 1
    73    33    71 1
    74    34    72 1
    75    34    73 1
    76    35    74 1
    77    35    75 1
    78    36    76 1
    79    36    77 1
    80    37    78 1
    81    37    79 1
    82    38    80 1
    83    39    81 1
    84    39    82 1
    85    39    83 1
    86    83    84 1
    87    84    85 1
    88    85    86 1
    89    38    87 1
    90    83    88 1
    91    83    89 1
    92    84    90 1
    93    84    91 1
    94    85    92 1
    95    85    93 1
    96    86    94 1
    97    86    95 1
    98    86    96 1
@<TRIPOS>SUBSTRUCTURE
     1 5SV         1 TEMP              0 ****  ****    0 ROOT
