@<TRIPOS>MOLECULE
5SW
   49    51     1     0     0
SMALL
bcc


@<TRIPOS>ATOM
      1 N3           0.0000     0.0000     0.0000 nb         1 5SW      -0.609000
      2 C4           1.3170     0.0000     0.0000 ca         1 5SW       0.485200
      3 C5           1.2720     0.0000     2.4170 ca         1 5SW       0.042200
      4 C6           2.0080     0.0000     1.2090 ca         1 5SW      -0.297900
      5 C7           3.4720    -0.0010     1.2870 c          1 5SW       0.624100
      6 C10          2.0070    -0.0020     3.6860 cc         1 5SW      -0.104400
      7 C13          0.7010     1.0900     7.0420 ca         1 5SW       0.201100
      8 C17          1.3820     1.0930     5.8360 ca         1 5SW      -0.249000
      9 C20         -0.1880    -1.0880     6.5430 ca         1 5SW       0.201100
     10 C21         -0.0830     0.0020     7.3950 ca         1 5SW      -0.166300
     11 C24         -1.0200    -3.2390     5.9670 c3         1 5SW       0.241200
     12 C26          1.6340     3.2370     7.4590 c3         1 5SW       0.241200
     13 C18          1.2800    -0.0010     4.9770 ca         1 5SW       0.054200
     14 C1          -0.1230     0.0010     2.3470 ca         1 5SW      -0.240300
     15 N8           4.0690    -0.0020     2.4950 n          1 5SW       0.077000
     16 C2          -0.7150     0.0000     1.1140 ca         1 5SW       0.435200
     17 C16         -2.9860    -0.2560     7.6510 c3         1 5SW       0.176600
     18 C25         -2.8150     0.8270     9.8100 c3         1 5SW       0.176600
     19 C9           3.3650    -0.0020     3.6600 cd         1 5SW      -0.118400
     20 C12          5.5330    -0.0020     2.5570 c3         1 5SW       0.053300
     21 C19          0.4910    -1.0920     5.3350 ca         1 5SW      -0.249000
     22 O23         -0.9570    -2.1520     6.8930 os         1 5SW      -0.301400
     23 O22          0.8060     2.1530     7.8830 os         1 5SW      -0.301400
     24 N15         -2.1550     0.5900     8.5190 n3         1 5SW      -0.539600
     25 O11          4.1420    -0.0020     0.2690 o          1 5SW      -0.675500
     26 H1           1.8600    -0.0000    -0.9370 h4         1 5SW       0.002100
     27 H2           1.9950     1.9430     5.5600 ha         1 5SW       0.129500
     28 H3          -0.0240    -3.6340     5.8060 h1         1 5SW      -0.001133
     29 H4          -1.4260    -2.8890     5.0260 h1         1 5SW      -0.001133
     30 H5          -1.6570    -4.0180     6.3680 h1         1 5SW      -0.001133
     31 H6           1.2500     3.6430     6.5310 h1         1 5SW      -0.001133
     32 H7           2.6460     2.8800     7.3050 h1         1 5SW      -0.001133
     33 H8           1.6350     4.0090     8.2190 h1         1 5SW      -0.001133
     34 H9          -0.7220     0.0010     3.2500 ha         1 5SW       0.132000
     35 H10         -1.7960     0.0000     1.0480 h4         1 5SW      -0.021900
     36 H11         -2.6940    -0.1080     6.6180 h1         1 5SW       0.002033
     37 H12         -4.0280     0.0140     7.7750 h1         1 5SW       0.002033
     38 H13         -2.8470    -1.2960     7.9210 h1         1 5SW       0.002033
     39 H14         -3.7890     1.2710     9.6420 h1         1 5SW       0.002033
     40 H15         -2.9330    -0.1140    10.3330 h1         1 5SW       0.002033
     41 H16         -2.2100     1.4980    10.4070 h1         1 5SW       0.002033
     42 H17          3.9060    -0.0020     4.5980 h4         1 5SW       0.132000
     43 H18          5.8520    -0.1630     3.5800 h1         1 5SW       0.023367
     44 H19          5.9210    -0.7960     1.9290 h1         1 5SW       0.023367
     45 H20          5.9100     0.9510     2.2070 h1         1 5SW       0.023367
     46 H21          0.4090    -1.9430     4.6690 ha         1 5SW       0.129500
     47 H22         -0.9250    -1.0150     9.0660 h1         1 5SW       0.018700
     48 H23         -0.2700     0.5870     9.4340 h1         1 5SW       0.018700
     49 C14         -0.8230     0.0020     8.7090 c3         1 5SW       0.225100
@<TRIPOS>BOND
     1     1     2 ar  
     2     1    16 ar  
     3     2     4 ar  
     4     2    26 1   
     5     3     4 ar  
     6     3     6 1   
     7     3    14 ar  
     8     4     5 1   
     9     5    15 1   
    10     5    25 2   
    11     6    13 1   
    12     6    19 2   
    13     7     8 ar  
    14     7    10 ar  
    15     7    23 1   
    16     8    13 ar  
    17     8    27 1   
    18     9    10 ar  
    19     9    21 ar  
    20     9    22 1   
    21    10    49 1   
    22    11    22 1   
    23    11    28 1   
    24    11    29 1   
    25    11    30 1   
    26    12    23 1   
    27    12    31 1   
    28    12    32 1   
    29    12    33 1   
    30    13    21 ar  
    31    14    16 ar  
    32    14    34 1   
    33    15    19 1   
    34    15    20 1   
    35    16    35 1   
    36    17    24 1   
    37    17    36 1   
    38    17    37 1   
    39    17    38 1   
    40    18    24 1   
    41    18    39 1   
    42    18    40 1   
    43    18    41 1   
    44    19    42 1   
    45    20    43 1   
    46    20    44 1   
    47    20    45 1   
    48    21    46 1   
    49    24    49 1   
    50    47    49 1   
    51    48    49 1   
@<TRIPOS>SUBSTRUCTURE
     1 5SW         1 TEMP              0 ****  ****    0 ROOT
