@<TRIPOS>MOLECULE
molecule
   49    51     1     0     0
SMALL
bcc


@<TRIPOS>ATOM
      1 N3           0.0000     0.0000     0.0000 nb         1 5SW      -0.711000
      2 C4           1.3170     0.0000     0.0000 ca         1 5SW       0.494200
      3 C5           1.2720     0.0000     2.4170 ca         1 5SW       0.043200
      4 C6           2.0080     0.0000     1.2090 ca         1 5SW      -0.291900
      5 C7           3.4720    -0.0010     1.2870 c          1 5SW       0.710100
      6 C10          2.0070    -0.0020     3.6860 cc         1 5SW      -0.123400
      7 C13          0.7010     1.0900     7.0420 ca         1 5SW       0.184100
      8 C17          1.3820     1.0930     5.8360 ca         1 5SW      -0.250000
      9 C20         -0.1880    -1.0880     6.5430 ca         1 5SW       0.184100
     10 C21         -0.0830     0.0020     7.3950 ca         1 5SW      -0.137300
     11 C24         -1.0200    -3.2390     5.9670 c3         1 5SW       0.127200
     12 C26          1.6340     3.2370     7.4590 c3         1 5SW       0.127200
     13 C18          1.2800    -0.0010     4.9770 ca         1 5SW       0.036200
     14 C1          -0.1230     0.0010     2.3470 ca         1 5SW      -0.263300
     15 N8           4.0690    -0.0020     2.4950 n          1 5SW      -0.343000
     16 C2          -0.7150     0.0000     1.1140 ca         1 5SW       0.446200
     17 C16         -2.9860    -0.2560     7.6510 c3         1 5SW       0.151600
     18 C25         -2.8150     0.8270     9.8100 c3         1 5SW       0.151600
     19 C9           3.3650    -0.0020     3.6600 cd         1 5SW       0.023600
     20 C12          5.5330    -0.0020     2.5570 c3         1 5SW       0.085300
     21 C19          0.4910    -1.0920     5.3350 ca         1 5SW      -0.250000
     22 O23         -0.9570    -2.1520     6.8930 os         1 5SW      -0.320900
     23 O22          0.8060     2.1530     7.8830 os         1 5SW      -0.320900
     24 N15         -2.1550     0.5900     8.5190 n3         1 5SW      -0.724600
     25 O11          4.1420    -0.0020     0.2690 o          1 5SW      -0.631500
     26 H1           1.8600    -0.0000    -0.9370 h4         1 5SW       0.048100
     27 H2           1.9950     1.9430     5.5600 ha         1 5SW       0.141500
     28 H3          -0.0240    -3.6340     5.8060 h1         1 5SW       0.042867
     29 H4          -1.4260    -2.8890     5.0260 h1         1 5SW       0.042867
     30 H5          -1.6570    -4.0180     6.3680 h1         1 5SW       0.042867
     31 H6           1.2500     3.6430     6.5310 h1         1 5SW       0.042867
     32 H7           2.6460     2.8800     7.3050 h1         1 5SW       0.042867
     33 H8           1.6350     4.0090     8.2190 h1         1 5SW       0.042867
     34 H9          -0.7220     0.0010     3.2500 ha         1 5SW       0.154000
     35 H10         -1.7960     0.0000     1.0480 h4         1 5SW       0.024100
     36 H11         -2.6940    -0.1080     6.6180 h1         1 5SW       0.031533
     37 H12         -4.0280     0.0140     7.7750 h1         1 5SW       0.031533
     38 H13         -2.8470    -1.2960     7.9210 h1         1 5SW       0.031533
     39 H14         -3.7890     1.2710     9.6420 h1         1 5SW       0.031533
     40 H15         -2.9330    -0.1140    10.3330 h1         1 5SW       0.031533
     41 H16         -2.2100     1.4980    10.4070 h1         1 5SW       0.031533
     42 H17          3.9060    -0.0020     4.5980 h4         1 5SW       0.159000
     43 H18          5.8520    -0.1630     3.5800 h1         1 5SW       0.056033
     44 H19          5.9210    -0.7960     1.9290 h1         1 5SW       0.056033
     45 H20          5.9100     0.9510     2.2070 h1         1 5SW       0.056033
     46 H21          0.4090    -1.9430     4.6690 ha         1 5SW       0.141500
     47 H22         -0.9250    -1.0150     9.0660 h1         1 5SW       0.047200
     48 H23         -0.2700     0.5870     9.4340 h1         1 5SW       0.047200
     49 C14         -0.8230     0.0020     8.7090 c3         1 5SW       0.225100
@<TRIPOS>BOND
     1    12    23 1   
     2    23     7 1   
     3     7     8 ar  
     4     7    10 ar  
     5    49    10 1   
     6    49    24 1   
     7    18    24 1   
     8     8    13 ar  
     9    10     9 ar  
    10    24    17 1   
    11    13     6 1   
    12    13    21 ar  
    13     9    21 ar  
    14     9    22 1   
    15    14    16 ar  
    16    14     3 ar  
    17     6     3 1   
    18     6    19 2   
    19    16     1 ar  
    20     3     4 ar  
    21    19    15 1   
    22    22    11 1   
    23     1     2 ar  
    24     4     2 ar  
    25     4     5 1   
    26    15     5 1   
    27    15    20 1   
    28     5    25 2   
    29     2    26 1   
    30     8    27 1   
    31    11    28 1   
    32    11    29 1   
    33    11    30 1   
    34    12    31 1   
    35    12    32 1   
    36    12    33 1   
    37    14    34 1   
    38    16    35 1   
    39    17    36 1   
    40    17    37 1   
    41    17    38 1   
    42    18    39 1   
    43    18    40 1   
    44    18    41 1   
    45    19    42 1   
    46    20    43 1   
    47    20    44 1   
    48    20    45 1   
    49    21    46 1   
    50    49    47 1   
    51    49    48 1   
@<TRIPOS>SUBSTRUCTURE
     1 5SW         1 TEMP              0 ****  ****    0 ROOT
