@<TRIPOS>MOLECULE
molecule
   50    52     1     0     0
SMALL
bcc


@<TRIPOS>ATOM
      1 C4           0.0000     0.0000     0.0000 c3         1 5SY       0.094100
      2 C5           1.5300     0.0000     0.0000 c3         1 5SY       0.134100
      3 C6           2.0400     1.2490    -0.7200 c3         1 5SY       0.148400
      4 O6           3.4650     1.1920    -0.8220 oh         1 5SY      -0.599800
      5 O5           2.0050     0.0000     1.3480 os         1 5SY      -0.403600
      6 O4          -0.4780     1.1920     0.6270 oh         1 5SY      -0.582800
      7 C3          -0.5050    -1.2210     0.7740 c3         1 5SY       0.150100
      8 C2           0.0750    -1.1900     2.1920 c3         1 5SY       0.141100
      9 C1           1.6060    -1.1430     2.1080 c3         1 5SY       0.318900
     10 O1           2.0840    -2.3280     1.4700 os         1 5SY      -0.448600
     11 C            3.5020    -2.4940     1.5400 c3         1 5SY       0.127700
     12 O2          -0.3380    -2.3810     2.9120 os         1 5SY      -0.406900
     13 CAC         -0.4790    -2.2700     4.2420 c          1 5SY       0.630100
     14 OAC         -0.2640    -1.2120     4.7870 o          1 5SY      -0.554000
     15 CAM         -0.9060    -3.4640     5.0570 c3         1 5SY      -0.137100
     16 O3          -1.9310    -1.1900     0.8410 os         1 5SY      -0.421600
     17 CA          -2.5790    -1.8640    -0.2410 c3         1 5SY       0.200600
     18 CB          -4.0730    -1.7680    -0.0700 cc         1 5SY      -0.244400
     19 CC          -4.5960    -1.1110     0.9960 cd         1 5SY       0.004800
     20 CD          -6.0550    -1.0430     1.1210 ca         1 5SY      -0.162800
     21 CG          -6.6570    -0.3820     2.1960 ca         1 5SY      -0.068000
     22 CH          -8.0200    -0.3360     2.2850 ca         1 5SY      -0.156000
     23 CI          -8.8100    -0.9400     1.3170 ca         1 5SY      -0.081000
     24 CJ          -8.2350    -1.5970     0.2490 ca         1 5SY      -0.146000
     25 CE          -6.8520    -1.6560     0.1380 ca         1 5SY       0.159100
     26 OA          -6.2690    -2.2940    -0.8990 os         1 5SY      -0.300200
     27 CF          -4.9340    -2.3560    -1.0220 c          1 5SY       0.748800
     28 OB          -4.4530    -2.9420    -1.9740 o          1 5SY      -0.586500
     29 H1          -0.3600    -0.0470    -1.0210 h1         1 5SY       0.045700
     30 H2           1.8900    -0.8870    -0.5080 h1         1 5SY       0.068700
     31 H3           1.7540     2.1310    -0.1600 h1         1 5SY       0.033200
     32 H4           1.6090     1.2960    -1.7120 h1         1 5SY       0.033200
     33 H5           3.7710     1.9060    -1.3560 ho         1 5SY       0.403000
     34 H6          -0.8580     1.7590    -0.0240 ho         1 5SY       0.402000
     35 H7          -0.1810    -2.1250     0.2720 h1         1 5SY       0.074700
     36 H8          -0.2840    -0.3070     2.7070 h1         1 5SY       0.115700
     37 H9           2.0190    -1.0730     3.1070 h2         1 5SY       0.094700
     38 H10          3.7350    -3.3360     2.1810 h1         1 5SY       0.038033
     39 H11          3.8940    -2.6770     0.5470 h1         1 5SY       0.038033
     40 H12          3.9510    -1.5960     1.9460 h1         1 5SY       0.038033
     41 H13         -1.4540    -4.1540     4.4270 hc         1 5SY       0.070033
     42 H14         -0.0300    -3.9590     5.4580 hc         1 5SY       0.070033
     43 H15         -1.5400    -3.1370     5.8720 hc         1 5SY       0.070033
     44 H16         -2.2920    -1.4010    -1.1780 h1         1 5SY       0.049200
     45 H17         -2.2830    -2.9060    -0.2470 h1         1 5SY       0.049200
     46 H18         -3.9700    -0.4530     1.5870 ha         1 5SY       0.172000
     47 H19         -6.0460     0.0920     2.9540 ha         1 5SY       0.143000
     48 H20         -8.4870     0.1770     3.1180 ha         1 5SY       0.139000
     49 H21         -9.8890    -0.8950     1.4010 ha         1 5SY       0.141000
     50 H22         -8.8600    -2.0660    -0.5010 ha         1 5SY       0.153000
@<TRIPOS>BOND
     1    28    27 2
     2    11    10 1
     3    10     9 1
     4    27    26 1
     5    27    18 1
     6    26    25 1
     7    12    13 1
     8    12     8 1
     9    15    13 1
    10    17    18 1
    11    17    16 1
    12    18    19 2
    13    25    24 ar
    14    25    20 ar
    15    24    23 ar
    16    13    14 2
    17     7    16 1
    18     7     8 1
    19     7     1 1
    20    19    20 1
    21     9     8 1
    22     9     5 1
    23    20    21 ar
    24    23    22 ar
    25     2     1 1
    26     2     5 1
    27     2     3 1
    28     1     6 1
    29    21    22 ar
    30     4     3 1
    31     1    29 1
    32     2    30 1
    33     3    31 1
    34     3    32 1
    35     4    33 1
    36     6    34 1
    37     7    35 1
    38     8    36 1
    39     9    37 1
    40    11    38 1
    41    11    39 1
    42    11    40 1
    43    15    41 1
    44    15    42 1
    45    15    43 1
    46    17    44 1
    47    17    45 1
    48    19    46 1
    49    21    47 1
    50    22    48 1
    51    23    49 1
    52    24    50 1
@<TRIPOS>SUBSTRUCTURE
     1 5SY         1 TEMP              0 ****  ****    0 ROOT
