@<TRIPOS>MOLECULE
molecule
   55    57     1     0     0
SMALL
bcc


@<TRIPOS>ATOM
      1 C14          0.0000     0.0000     0.0000 ca         1 5T0      -0.075000
      2 C13          1.3810     0.0000     0.0000 ca         1 5T0      -0.221000
      3 C15         -0.6930    -0.0010     1.1960 ca         1 5T0      -0.137300
      4 C17          1.3750    -0.0130     2.4040 ca         1 5T0      -0.221000
      5 C16         -0.0060    -0.0070     2.3970 ca         1 5T0      -0.075000
      6 C8           5.1510    -0.1430     3.2230 c3         1 5T0      -0.082400
      7 C10          3.9100     1.1360     0.9390 c3         1 5T0       0.183300
      8 C9           3.6360     0.0030     3.0630 c3         1 5T0       0.183300
      9 N1           3.2900     0.0030     1.6360 nh         1 5T0      -0.611000
     10 C12          2.0740     0.0000     1.2030 ca         1 5T0       0.159600
     11 C11          5.4340     1.0250     1.0360 c3         1 5T0      -0.082400
     12 C1          11.2240     4.8130     1.2060 c3         1 5T0      -0.097900
     13 C2          12.2910     4.0900     2.0710 c3         1 5T0      -0.097900
     14 C3          11.8590     2.6100     1.9270 c3         1 5T0       0.066500
     15 C4           9.5540     1.8990     2.1140 c          1 5T0       0.645100
     16 C6           7.3640     0.8460     2.6140 c3         1 5T0      -0.056400
     17 C7           5.8480     1.0180     2.5110 c3         1 5T0      -0.078700
     18 O           10.0160     0.8980     2.6200 o          1 5T0      -0.710100
     19 N           10.3840     2.6470     1.9120 n          1 5T0      -0.363800
     20 C            9.9510     3.9770     1.4600 c3         1 5T0       0.066500
     21 C18         -2.2000     0.0050     1.1930 c3         1 5T0       0.209100
     22 N2          -2.6950    -1.3780     1.1880 n7         1 5T0      -0.815200
     23 C19         -4.1640    -1.4110     1.1840 c3         1 5T0       0.145100
     24 H1          -0.5410     0.0020    -0.9390 ha         1 5T0       0.127500
     25 H2           1.9240     0.0060    -0.9380 ha         1 5T0       0.143000
     26 H3           1.9120    -0.0150     3.3450 ha         1 5T0       0.143000
     27 H4          -0.5520    -0.0120     3.3320 ha         1 5T0       0.127500
     28 H5           5.4710    -1.0800     2.7840 hc         1 5T0       0.053450
     29 H6           5.4060    -0.1240     4.2760 hc         1 5T0       0.053450
     30 H7           3.6150     1.1230    -0.1030 h1         1 5T0       0.046450
     31 H8           3.5870     2.0620     1.4000 h1         1 5T0       0.046450
     32 H9           3.1410    -0.8270     3.5530 h1         1 5T0       0.046450
     33 H10          3.3150     0.9360     3.5110 h1         1 5T0       0.046450
     34 H11          5.7590     0.1040     0.5670 hc         1 5T0       0.053450
     35 H12          5.8900     1.8720     0.5380 hc         1 5T0       0.053450
     36 H14         12.2320     4.4110     3.1040 hc         1 5T0       0.058200
     37 H15         12.2110     2.0320     2.7730 h1         1 5T0       0.061700
     38 H18          7.6640    -0.0440     2.0730 hc         1 5T0       0.063200
     39 H19          7.6460     0.7470     3.6550 hc         1 5T0       0.063200
     40 H20          5.5520     1.9530     2.9710 hc         1 5T0       0.044700
     41 H21          9.3830     3.8860     0.5420 h1         1 5T0       0.061700
     42 H22         -2.5610     0.5150     2.0780 h1         1 5T0       0.033200
     43 H23         -2.5570     0.5200     0.3090 h1         1 5T0       0.033200
     44 H24         -2.3480    -1.8540     0.3780 hn         1 5T0       0.354800
     45 H26         -4.5390    -0.9100     2.0680 h1         1 5T0       0.029367
     46 H27         -4.5020    -2.4410     1.1820 h1         1 5T0       0.029367
     47 H28         -4.5340    -0.9080     0.2990 h1         1 5T0       0.029367
     48 H29         11.0840     5.8320     1.5450 hc         1 5T0       0.058200
     49 H30         13.2840     4.2430     1.6650 hc         1 5T0       0.058200
     50 H31         12.2330     2.1980     0.9980 h1         1 5T0       0.061700
     51 H32          9.3490     4.4480     2.2280 h1         1 5T0       0.061700
     52 C5           8.0600     2.0690     2.0110 c3         1 5T0      -0.144400
     53 H13         11.4970     4.7830     0.1590 hc         1 5T0       0.058200
     54 H16          7.7590     2.9580     2.5520 hc         1 5T0       0.053200
     55 H17          7.7780     2.1670     0.9700 hc         1 5T0       0.053200
@<TRIPOS>BOND
     1    18    15 2   
     2    14    13 1   
     3    14    19 1   
     4    13    12 1   
     5    15    19 1   
     6    15    52 1   
     7    19    20 1   
     8    16    52 1   
     9    16    17 1   
    10     6     8 1   
    11     6    17 1   
    12    12    20 1   
    13     8     9 1   
    14    17    11 1   
    15    11     7 1   
    16     9    10 1   
    17     9     7 1   
    18    10     2 ar  
    19    10     4 ar  
    20     2     1 ar  
    21     4     5 ar  
    22     1     3 ar  
    23     5     3 ar  
    24     3    21 1   
    25    21    22 1   
    26    22    23 1   
    27     1    24 1   
    28     2    25 1   
    29     4    26 1   
    30     5    27 1   
    31     6    28 1   
    32     6    29 1   
    33     7    30 1   
    34     7    31 1   
    35     8    32 1   
    36     8    33 1   
    37    11    34 1   
    38    11    35 1   
    39    12    53 1   
    40    13    36 1   
    41    14    37 1   
    42    52    54 1   
    43    52    55 1   
    44    16    38 1   
    45    16    39 1   
    46    17    40 1   
    47    20    41 1   
    48    21    42 1   
    49    21    43 1   
    50    22    44 1   
    51    23    45 1   
    52    23    46 1   
    53    23    47 1   
    54    12    48 1   
    55    13    49 1   
    56    14    50 1   
    57    20    51 1   
@<TRIPOS>SUBSTRUCTURE
     1 5T0         1 TEMP              0 ****  ****    0 ROOT
