@<TRIPOS>MOLECULE
molecule
   56    60     1     0     0
SMALL
bcc


@<TRIPOS>ATOM
      1 C23          0.0000     0.0000     0.0000 c3         1 5T1       0.128700
      2 O3           1.4290     0.0000     0.0000 os         1 5T1      -0.419600
      3 C22          2.0100     0.0000     1.3050 c3         1 5T1       0.140400
      4 C21          3.5360     0.0010     1.1840 c3         1 5T1       0.138400
      5 O2           3.9650     1.2220     0.5780 os         1 5T1      -0.310900
      6 C19          5.3020     1.3840     0.3970 ca         1 5T1      -0.006200
      7 C20          5.7930     2.5470    -0.1790 ca         1 5T1      -0.055000
      8 C15          7.1750     2.6640    -0.3380 ca         1 5T1      -0.247900
      9 C16          7.7920     3.8520    -0.9360 c          1 5T1       0.716100
     10 O1           7.1020     4.7800    -1.3140 o          1 5T1      -0.646500
     11 C18          6.1900     0.3860     0.7940 ca         1 5T1       0.369200
     12 N7           7.4890     0.5150     0.6310 nb         1 5T1      -0.663000
     13 C14          8.0140     1.6080     0.0890 ca         1 5T1       0.488100
     14 C13          9.4580     1.7620    -0.0910 cc         1 5T1      -0.308800
     15 C12          9.9410     2.8840    -0.6490 cd         1 5T1       0.007600
     16 N6           9.1330     3.9030    -1.0610 n          1 5T1      -0.341000
     17 C11          9.7450     5.0940    -1.6590 c3         1 5T1       0.112400
     18 C17         10.5250     4.6900    -2.9120 c3         1 5T1      -0.105100
     19 C10         10.6810     5.7300    -0.6660 cd         1 5T1       0.269800
     20 N1          10.7720     7.0580    -0.3810 na         1 5T1      -0.031200
     21 C5          10.1190     8.1640    -0.8420 cd         1 5T1      -0.091300
     22 N5          11.5530     5.1070     0.0850 nc         1 5T1      -0.344700
     23 N4          12.1910     5.9490     0.8200 nc         1 5T1      -0.068000
     24 C4          11.7500     7.1720     0.5740 cd         1 5T1      -0.102300
     25 C3          12.0860     8.4430     1.0870 cd         1 5T1       0.179900
     26 F1          13.0490     8.5670     2.0270 f          1 5T1      -0.106900
     27 C2          11.4330     9.5430     0.6240 cc         1 5T1      -0.157000
     28 C1          10.4290     9.3970    -0.3610 cc         1 5T1       0.008000
     29 C6           9.7120    10.5940    -0.8710 cc         1 5T1      -0.286300
     30 C8           8.8880    11.4070    -0.1500 cd         1 5T1      -0.082300
     31 C7           9.7640    11.0980    -2.1850 cc         1 5T1       0.351200
     32 N2           9.0020    12.1580    -2.2440 nd         1 5T1      -0.503800
     33 N3           8.4410    12.3730    -0.9790 na         1 5T1       0.072400
     34 C9           7.5290    13.4620    -0.6190 c3         1 5T1       0.061600
     35 H1          -0.3610     0.0060    -1.0210 h1         1 5T1       0.031367
     36 H2          -0.3610     0.8810     0.5160 h1         1 5T1       0.031367
     37 H3          -0.3610    -0.8880     0.5050 h1         1 5T1       0.031367
     38 H4           1.6910    -0.8850     1.8420 h1         1 5T1       0.037200
     39 H5           1.6910     0.8840     1.8430 h1         1 5T1       0.037200
     40 H6           3.9760    -0.0880     2.1700 h1         1 5T1       0.046200
     41 H7           3.8500    -0.8360     0.5710 h1         1 5T1       0.046200
     42 H8           5.1630     3.4270    -0.2430 ha         1 5T1       0.172000
     43 H9           5.8010    -0.5180     1.2470 h4         1 5T1       0.026100
     44 H10         10.1340     0.9750     0.2230 ha         1 5T1       0.166000
     45 H11         11.0120     2.9830    -0.7760 h4         1 5T1       0.180000
     46 H12          8.9690     5.8010    -1.9290 h1         1 5T1       0.105700
     47 H13          9.9530     3.9640    -3.4760 hc         1 5T1       0.055700
     48 H14         10.7020     5.5660    -3.5250 hc         1 5T1       0.055700
     49 H15         11.4740     4.2560    -2.6220 hc         1 5T1       0.055700
     50 H16          9.3490     8.0590    -1.5970 h4         1 5T1       0.180000
     51 H17         11.6810    10.5260     1.0080 ha         1 5T1       0.165000
     52 H18          8.6360    11.2960     0.8980 h4         1 5T1       0.179000
     53 H19         10.3340    10.6780    -3.0050 h4         1 5T1       0.054100
     54 H20          7.9680    14.0530     0.1760 h1         1 5T1       0.059033
     55 H21          7.3570    14.0900    -1.4840 h1         1 5T1       0.059033
     56 H22          6.5870    13.0460    -0.2810 h1         1 5T1       0.059033
@<TRIPOS>BOND
     1    18    17 1   
     2    17    19 1   
     3    17    16 1   
     4    22    19 2   
     5    22    23 1   
     6    19    20 1   
     7    16    15 1   
     8    16     9 1   
     9    10     9 2   
    10    15    14 2   
    11     9     8 1   
    12    23    24 2   
    13    20    24 1   
    14    20    21 1   
    15    14    13 1   
    16    24    25 1   
    17    21    28 2   
    18     8    13 ar  
    19     8     7 ar  
    20    13    12 ar  
    21     7     6 ar  
    22    25    26 1   
    23    25    27 2   
    24    28    29 1   
    25    28    27 1   
    26    31    29 1   
    27    31    32 2   
    28    12    11 ar  
    29    29    30 2   
    30     6    11 ar  
    31     6     5 1   
    32    32    33 1   
    33     5     4 1   
    34    30    33 1   
    35    33    34 1   
    36     4     3 1   
    37     3     2 1   
    38     2     1 1   
    39     1    35 1   
    40     1    36 1   
    41     1    37 1   
    42     3    38 1   
    43     3    39 1   
    44     4    40 1   
    45     4    41 1   
    46     7    42 1   
    47    11    43 1   
    48    14    44 1   
    49    15    45 1   
    50    17    46 1   
    51    18    47 1   
    52    18    48 1   
    53    18    49 1   
    54    21    50 1   
    55    27    51 1   
    56    30    52 1   
    57    31    53 1   
    58    34    54 1   
    59    34    55 1   
    60    34    56 1   
@<TRIPOS>SUBSTRUCTURE
     1 5T1         1 TEMP              0 ****  ****    0 ROOT
