@<TRIPOS>MOLECULE
5T1
   56    60     1     0     0
SMALL
bcc


@<TRIPOS>ATOM
      1 C23          0.0000     0.0000     0.0000 c3         1 5T1       0.254700
      2 O3           1.4290     0.0000     0.0000 os         1 5T1      -0.408600
      3 C22          2.0100     0.0000     1.3050 c3         1 5T1       0.208400
      4 C21          3.5360     0.0010     1.1840 c3         1 5T1       0.196400
      5 O2           3.9650     1.2220     0.5780 os         1 5T1      -0.285900
      6 C19          5.3020     1.3840     0.3970 ca         1 5T1       0.007800
      7 C20          5.7930     2.5470    -0.1790 ca         1 5T1      -0.036000
      8 C15          7.1750     2.6640    -0.3380 ca         1 5T1      -0.247900
      9 C16          7.7920     3.8520    -0.9360 c          1 5T1       0.628100
     10 O1           7.1020     4.7800    -1.3140 o          1 5T1      -0.697500
     11 C18          6.1900     0.3860     0.7940 ca         1 5T1       0.331200
     12 N7           7.4890     0.5150     0.6310 nb         1 5T1      -0.543000
     13 C14          8.0140     1.6080     0.0890 ca         1 5T1       0.435100
     14 C13          9.4580     1.7620    -0.0910 cc         1 5T1      -0.271800
     15 C12          9.9410     2.8840    -0.6490 cd         1 5T1      -0.136400
     16 N6           9.1330     3.9030    -1.0610 n          1 5T1       0.082000
     17 C11          9.7450     5.0940    -1.6590 c3         1 5T1       0.018400
     18 C17         10.5250     4.6900    -2.9120 c3         1 5T1      -0.013100
     19 C10         10.6810     5.7300    -0.6660 cc         1 5T1       0.031800
     20 N1          10.7720     7.0580    -0.3810 na         1 5T1       0.549800
     21 C5          10.1190     8.1640    -0.8420 cc         1 5T1      -0.296300
     22 N5          11.5530     5.1070     0.0850 nd         1 5T1      -0.300700
     23 N4          12.1910     5.9490     0.8200 nd         1 5T1      -0.053000
     24 C4          11.7500     7.1720     0.5740 cc         1 5T1      -0.308300
     25 C3          12.0860     8.4430     1.0870 cc         1 5T1       0.196900
     26 F1          13.0490     8.5670     2.0270 f          1 5T1      -0.102900
     27 C2          11.4330     9.5430     0.6240 cd         1 5T1      -0.161000
     28 C1          10.4290     9.3970    -0.3610 cd         1 5T1       0.081000
     29 C6           9.7120    10.5940    -0.8710 cd         1 5T1      -0.301300
     30 C8           8.8880    11.4070    -0.1500 cc         1 5T1      -0.221300
     31 C7           9.7640    11.0980    -2.1850 cd         1 5T1       0.416200
     32 N2           9.0020    12.1580    -2.2440 nc         1 5T1      -0.641800
     33 N3           8.4410    12.3730    -0.9790 na         1 5T1       0.500400
     34 C9           7.5290    13.4620    -0.6190 c3         1 5T1       0.020600
     35 H1          -0.3610     0.0060    -1.0210 h1         1 5T1      -0.012967
     36 H2          -0.3610     0.8810     0.5160 h1         1 5T1      -0.012967
     37 H3          -0.3610    -0.8880     0.5050 h1         1 5T1      -0.012967
     38 H4           1.6910    -0.8850     1.8420 h1         1 5T1      -0.000800
     39 H5           1.6910     0.8840     1.8430 h1         1 5T1      -0.000800
     40 H6           3.9760    -0.0880     2.1700 h1         1 5T1       0.009200
     41 H7           3.8500    -0.8360     0.5710 h1         1 5T1       0.009200
     42 H8           5.1630     3.4270    -0.2430 ha         1 5T1       0.140000
     43 H9           5.8010    -0.5180     1.2470 h4         1 5T1      -0.008900
     44 H10         10.1340     0.9750     0.2230 ha         1 5T1       0.134000
     45 H11         11.0120     2.9830    -0.7760 h4         1 5T1       0.156000
     46 H12          8.9690     5.8010    -1.9290 h1         1 5T1       0.074700
     47 H13          9.9530     3.9640    -3.4760 hc         1 5T1       0.019700
     48 H14         10.7020     5.5660    -3.5250 hc         1 5T1       0.019700
     49 H15         11.4740     4.2560    -2.6220 hc         1 5T1       0.019700
     50 H16          9.3490     8.0590    -1.5970 h4         1 5T1       0.159000
     51 H17         11.6810    10.5260     1.0080 ha         1 5T1       0.139000
     52 H18          8.6360    11.2960     0.8980 h4         1 5T1       0.151000
     53 H19         10.3340    10.6780    -3.0050 h4         1 5T1       0.008100
     54 H20          7.9680    14.0530     0.1760 h1         1 5T1       0.025033
     55 H21          7.3570    14.0900    -1.4840 h1         1 5T1       0.025033
     56 H22          6.5870    13.0460    -0.2810 h1         1 5T1       0.025033
@<TRIPOS>BOND
     1     1     2 1   
     2     1    35 1   
     3     1    36 1   
     4     1    37 1   
     5     2     3 1   
     6     3     4 1   
     7     3    38 1   
     8     3    39 1   
     9     4     5 1   
    10     4    40 1   
    11     4    41 1   
    12     5     6 1   
    13     6     7 ar  
    14     6    11 ar  
    15     7     8 ar  
    16     7    42 1   
    17     8     9 1   
    18     8    13 ar  
    19     9    10 2   
    20     9    16 1   
    21    11    12 ar  
    22    11    43 1   
    23    12    13 ar  
    24    13    14 1   
    25    14    15 2   
    26    14    44 1   
    27    15    16 1   
    28    15    45 1   
    29    16    17 1   
    30    17    18 1   
    31    17    19 1   
    32    17    46 1   
    33    18    47 1   
    34    18    48 1   
    35    18    49 1   
    36    19    20 1   
    37    19    22 2   
    38    20    21 1   
    39    20    24 1   
    40    21    28 2   
    41    21    50 1   
    42    22    23 1   
    43    23    24 2   
    44    24    25 1   
    45    25    26 1   
    46    25    27 2   
    47    27    28 1   
    48    27    51 1   
    49    28    29 1   
    50    29    30 2   
    51    29    31 1   
    52    30    33 1   
    53    30    52 1   
    54    31    32 2   
    55    31    53 1   
    56    32    33 1   
    57    33    34 1   
    58    34    54 1   
    59    34    55 1   
    60    34    56 1   
@<TRIPOS>SUBSTRUCTURE
     1 5T1         1 TEMP              0 ****  ****    0 ROOT
