@<TRIPOS>MOLECULE
5T2
   43    45     1     0     0
SMALL
bcc


@<TRIPOS>ATOM
      1 C1           0.0000     0.0000     0.0000 ca         1 5T2      -0.184000
      2 C2           1.3870     0.0000     0.0000 ca         1 5T2      -0.010000
      3 C3           2.0840     0.0000     1.1900 ca         1 5T2      -0.220000
      4 C11         -2.7780    -0.2080     4.8900 ca         1 5T2      -0.094400
      5 C12         -3.9040    -1.0150     4.9870 ca         1 5T2      -0.081000
      6 C13         -4.5870    -1.1040     6.1840 ca         1 5T2      -0.193300
      7 C14         -4.1490    -0.3930     7.2860 ca         1 5T2      -0.058000
      8 C15         -3.0280     0.4120     7.1930 ca         1 5T2      -0.087000
      9 C16         -2.3380     0.5020     6.0000 ca         1 5T2      -0.072000
     10 C17          3.5580     0.1490     3.5950 c3         1 5T2       0.220100
     11 C18          4.0700     0.1180     5.0120 ca         1 5T2      -0.084300
     12 C19          4.1860     1.2840     5.7510 ca         1 5T2      -0.203300
     13 C20          4.6540     1.2160     7.0490 ca         1 5T2       0.404200
     14 C22          4.8960    -1.0710     6.9100 ca         1 5T2       0.404200
     15 C23          4.4310    -1.0810     5.6090 ca         1 5T2      -0.203300
     16 C24         -5.8090    -1.9790     6.2900 c3         1 5T2       0.640200
     17 C4           1.4000     0.0010     2.3990 ca         1 5T2       0.143600
     18 C5          -0.0040     0.0010     2.4020 ca         1 5T2      -0.275600
     19 C6          -0.6960     0.0070     1.1890 ca         1 5T2      -0.021000
     20 C7          -0.7420     0.0020     3.6780 c          1 5T2       0.618700
     21 N8           2.1010     0.0010     3.5980 nu         1 5T2      -0.433600
     22 N9          -2.0850    -0.1130     3.6790 ns         1 5T2      -0.029100
     23 O10         -0.1400     0.1070     4.7290 o          1 5T2      -0.672100
     24 N21          4.9870     0.0570     7.5860 nb         1 5T2      -0.576000
     25 F25         -6.4500    -2.0360     5.0480 f          1 5T2      -0.208300
     26 F26         -5.4280    -3.2680     6.6780 f          1 5T2      -0.208300
     27 F27         -6.6840    -1.4450     7.2410 f          1 5T2      -0.208300
     28 H1          -0.5390     0.0020    -0.9400 ha         1 5T2       0.108000
     29 H2           1.9250    -0.0030    -0.9400 ha         1 5T2       0.098000
     30 H3           3.1680     0.0000     1.1820 ha         1 5T2       0.119000
     31 H4          -4.2490    -1.5710     4.1230 ha         1 5T2       0.119000
     32 H5          -4.6870    -0.4630     8.2240 ha         1 5T2       0.118000
     33 H6          -2.6860     0.9670     8.0590 ha         1 5T2       0.112000
     34 H7          -1.4590     1.1320     5.9270 ha         1 5T2       0.148000
     35 H8           3.8250     1.0930     3.1350 h1         1 5T2       0.018200
     36 H9           4.0020    -0.6640     3.0320 h1         1 5T2       0.018200
     37 H10          3.9130     2.2380     5.3160 ha         1 5T2       0.117500
     38 H11          4.7440     2.1230     7.6340 h4         1 5T2      -0.018900
     39 H12          5.1790    -2.0030     7.3840 h4         1 5T2      -0.018900
     40 H13          4.3580    -2.0120     5.0590 ha         1 5T2       0.117500
     41 H14         -1.7790     0.0070     1.1830 ha         1 5T2       0.094000
     42 H15          1.6140    -0.1300     4.4620 hn         1 5T2       0.363800
     43 H16         -2.5740    -0.2400     2.8150 hn         1 5T2       0.178500
@<TRIPOS>BOND
     1     1     2 ar  
     2     1    19 ar  
     3     1    28 1   
     4     2     3 ar  
     5     2    29 1   
     6     3    17 ar  
     7     3    30 1   
     8     4     5 ar  
     9     4     9 ar  
    10     4    22 1   
    11     5     6 ar  
    12     5    31 1   
    13     6     7 ar  
    14     6    16 1   
    15     7     8 ar  
    16     7    32 1   
    17     8     9 ar  
    18     8    33 1   
    19     9    34 1   
    20    10    11 1   
    21    10    21 1   
    22    10    35 1   
    23    10    36 1   
    24    11    12 ar  
    25    11    15 ar  
    26    12    13 ar  
    27    12    37 1   
    28    13    24 ar  
    29    13    38 1   
    30    14    15 ar  
    31    14    24 ar  
    32    14    39 1   
    33    15    40 1   
    34    16    25 1   
    35    16    26 1   
    36    16    27 1   
    37    17    18 ar  
    38    17    21 1   
    39    18    19 ar  
    40    18    20 1   
    41    19    41 1   
    42    20    22 1   
    43    20    23 2   
    44    21    42 1   
    45    22    43 1   
@<TRIPOS>SUBSTRUCTURE
     1 5T2         1 TEMP              0 ****  ****    0 ROOT
