@<TRIPOS>MOLECULE
molecule
   43    45     1     0     0
SMALL
bcc


@<TRIPOS>ATOM
      1 C1           0.0000     0.0000     0.0000 ca         1 5T2      -0.201000
      2 C2           1.3870     0.0000     0.0000 ca         1 5T2      -0.048000
      3 C3           2.0840     0.0000     1.1900 ca         1 5T2      -0.228000
      4 C11         -2.7780    -0.2080     4.8900 ca         1 5T2       0.053600
      5 C12         -3.9040    -1.0150     4.9870 ca         1 5T2      -0.121000
      6 C13         -4.5870    -1.1040     6.1840 ca         1 5T2      -0.163300
      7 C14         -4.1490    -0.3930     7.2860 ca         1 5T2      -0.100000
      8 C15         -3.0280     0.4120     7.1930 ca         1 5T2      -0.117000
      9 C16         -2.3380     0.5020     6.0000 ca         1 5T2      -0.100000
     10 C17          3.5580     0.1490     3.5950 c3         1 5T2       0.275100
     11 C18          4.0700     0.1180     5.0120 ca         1 5T2      -0.074300
     12 C19          4.1860     1.2840     5.7510 ca         1 5T2      -0.236300
     13 C20          4.6540     1.2160     7.0490 ca         1 5T2       0.418200
     14 C22          4.8960    -1.0710     6.9100 ca         1 5T2       0.418200
     15 C23          4.4310    -1.0810     5.6090 ca         1 5T2      -0.236300
     16 C24         -5.8090    -1.9790     6.2900 c3         1 5T2       0.675200
     17 C4           1.4000     0.0010     2.3990 ca         1 5T2       0.267600
     18 C5          -0.0040     0.0010     2.4020 ca         1 5T2      -0.252600
     19 C6          -0.6960     0.0070     1.1890 ca         1 5T2      -0.051000
     20 C7          -0.7420     0.0020     3.6780 c          1 5T2       0.700700
     21 N8           2.1010     0.0010     3.5980 nu         1 5T2      -0.806600
     22 N9          -2.0850    -0.1130     3.6790 ns         1 5T2      -0.469100
     23 O10         -0.1400     0.1070     4.7290 o          1 5T2      -0.628100
     24 N21          4.9870     0.0570     7.5860 nb         1 5T2      -0.684000
     25 F25         -6.4500    -2.0360     5.0480 f          1 5T2      -0.223967
     26 F26         -5.4280    -3.2680     6.6780 f          1 5T2      -0.223967
     27 F27         -6.6840    -1.4450     7.2410 f          1 5T2      -0.223967
     28 H1          -0.5390     0.0020    -0.9400 ha         1 5T2       0.133000
     29 H2           1.9250    -0.0030    -0.9400 ha         1 5T2       0.132000
     30 H3           3.1680     0.0000     1.1820 ha         1 5T2       0.138000
     31 H4          -4.2490    -1.5710     4.1230 ha         1 5T2       0.145000
     32 H5          -4.6870    -0.4630     8.2240 ha         1 5T2       0.147000
     33 H6          -2.6860     0.9670     8.0590 ha         1 5T2       0.144000
     34 H7          -1.4590     1.1320     5.9270 ha         1 5T2       0.171000
     35 H8           3.8250     1.0930     3.1350 h1         1 5T2       0.046700
     36 H9           4.0020    -0.6640     3.0320 h1         1 5T2       0.046700
     37 H10          3.9130     2.2380     5.3160 ha         1 5T2       0.142500
     38 H11          4.7440     2.1230     7.6340 h4         1 5T2       0.025100
     39 H12          5.1790    -2.0030     7.3840 h4         1 5T2       0.025100
     40 H13          4.3580    -2.0120     5.0590 ha         1 5T2       0.142500
     41 H14         -1.7790     0.0070     1.1830 ha         1 5T2       0.121000
     42 H15          1.6140    -0.1300     4.4620 hn         1 5T2       0.488800
     43 H16         -2.5740    -0.2400     2.8150 hn         1 5T2       0.330500
@<TRIPOS>BOND
     1    27    16 1
     2    25    16 1
     3    16    26 1
     4    16     6 1
     5     6     5 ar
     6     6     7 ar
     7    13    24 ar
     8    13    12 ar
     9     5     4 ar
    10    24    14 ar
    11     7     8 ar
    12    12    11 ar
    13     4    22 1
    14     4     9 ar
    15    22    20 1
    16    19     1 ar
    17    19    18 ar
    18    23    20 2
    19     8     9 ar
    20    20    18 1
    21     1     2 ar
    22    18    17 ar
    23    14    15 ar
    24     2     3 ar
    25    11    15 ar
    26    11    10 1
    27    17     3 ar
    28    17    21 1
    29    21    10 1
    30     1    28 1
    31     2    29 1
    32     3    30 1
    33     5    31 1
    34     7    32 1
    35     8    33 1
    36     9    34 1
    37    10    35 1
    38    10    36 1
    39    12    37 1
    40    13    38 1
    41    14    39 1
    42    15    40 1
    43    19    41 1
    44    21    42 1
    45    22    43 1
@<TRIPOS>SUBSTRUCTURE
     1 5T2         1 TEMP              0 ****  ****    0 ROOT
