@<TRIPOS>MOLECULE
5T4
   44    46     1     0     0
SMALL
bcc


@<TRIPOS>ATOM
      1 C1           0.0000     0.0000     0.0000 ca         1 5T4      -0.387600
      2 C2           1.3860     0.0000     0.0000 ca         1 5T4       0.470200
      3 C3           1.3690    -0.0000     2.3010 ca         1 5T4       0.704900
      4 C4           3.0080     1.1350     3.5480 c3         1 5T4       0.132300
      5 C5           3.8730     1.0230     4.8060 c3         1 5T4      -0.021400
      6 C6           2.9700     1.0160     6.0420 c3         1 5T4      -0.068700
      7 C8           1.1680     0.0010     4.6430 c3         1 5T4       0.132300
      8 C9           2.2030     2.3370     6.1220 c3         1 5T4       0.051000
      9 C10          0.6720     3.4570     7.6520 c          1 5T4       0.615100
     10 C13         -1.5630     4.1970    10.5740 c3         1 5T4      -0.033400
     11 C14         -0.9340     4.6070     9.2260 c3         1 5T4       0.064500
     12 O            0.6290     4.3930     6.8780 o          1 5T4      -0.702100
     13 N4          -0.0640     3.5030     8.7960 n          1 5T4      -0.200800
     14 C12         -1.4540     2.6490    10.5530 c3         1 5T4      -0.033400
     15 C11         -0.1030     2.4430     9.8210 c3         1 5T4       0.064500
     16 N3           1.4310     2.3800     7.3660 ns         1 5T4      -0.225900
     17 C7           1.9780    -0.1450     5.9330 c3         1 5T4      -0.021400
     18 N2           2.0770     0.0000     3.4900 nh         1 5T4      -0.440300
     19 N1           0.0440     0.0110     2.3370 nb         1 5T4      -0.658500
     20 C           -0.6620     0.0050     1.2180 ca         1 5T4       0.470200
     21 N            2.0320     0.0000     1.1530 nb         1 5T4      -0.658500
     22 H1          -0.5540    -0.0020    -0.9310 ha         1 5T4       0.124000
     23 H2           1.9340    -0.0020    -0.9350 h4         1 5T4      -0.016900
     24 H3           3.6440     1.1240     2.6710 h1         1 5T4       0.033200
     25 H4           2.4450     2.0610     3.5800 h1         1 5T4       0.033200
     26 H5           4.4430     0.1020     4.7700 hc         1 5T4       0.023700
     27 H6           4.5470     1.8700     4.8560 hc         1 5T4       0.023700
     28 H7           3.5760     0.8900     6.9310 hc         1 5T4       0.028700
     29 H8           0.4770    -0.8300     4.5570 h1         1 5T4       0.033200
     30 H9           0.6180     0.9340     4.6680 h1         1 5T4       0.033200
     31 H10          2.9040     3.1630     6.1040 h1         1 5T4       0.034200
     32 H11          1.5300     2.4160     5.2770 h1         1 5T4       0.034200
     33 H13         -2.6000     4.5050    10.6210 hc         1 5T4       0.023700
     34 H14         -0.3470     5.5080     9.3540 h1         1 5T4       0.015700
     35 H15         -1.7130     4.7680     8.4920 h1         1 5T4       0.015700
     36 H16         -2.2690     2.2120     9.9880 hc         1 5T4       0.023700
     37 H17         -1.4110     2.2510    11.5590 hc         1 5T4       0.023700
     38 H18         -0.0640     1.4670     9.3530 h1         1 5T4       0.015700
     39 H19          0.7150     2.5670    10.5200 h1         1 5T4       0.015700
     40 H20          1.5020     1.6290     8.0240 hn         1 5T4       0.175500
     41 H21          1.3080    -0.1280     6.7840 hc         1 5T4       0.023700
     42 H22          2.5210    -1.0820     5.9140 hc         1 5T4       0.023700
     43 H23         -1.7450     0.0100     1.2530 h4         1 5T4      -0.016900
     44 H12         -0.9950     4.6070    11.4010 hc         1 5T4       0.023700
@<TRIPOS>BOND
     1     1     2 ar  
     2     1    20 ar  
     3     1    22 1   
     4     2    21 ar  
     5     2    23 1   
     6     3    18 1   
     7     3    19 ar  
     8     3    21 ar  
     9     4     5 1   
    10     4    18 1   
    11     4    24 1   
    12     4    25 1   
    13     5     6 1   
    14     5    26 1   
    15     5    27 1   
    16     6     8 1   
    17     6    17 1   
    18     6    28 1   
    19     7    17 1   
    20     7    18 1   
    21     7    29 1   
    22     7    30 1   
    23     8    16 1   
    24     8    31 1   
    25     8    32 1   
    26     9    12 2   
    27     9    13 1   
    28     9    16 1   
    29    10    11 1   
    30    10    14 1   
    31    10    33 1   
    32    10    44 1   
    33    11    13 1   
    34    11    34 1   
    35    11    35 1   
    36    13    15 1   
    37    14    15 1   
    38    14    36 1   
    39    14    37 1   
    40    15    38 1   
    41    15    39 1   
    42    16    40 1   
    43    17    41 1   
    44    17    42 1   
    45    19    20 ar  
    46    20    43 1   
@<TRIPOS>SUBSTRUCTURE
     1 5T4         1 TEMP              0 ****  ****    0 ROOT
