@<TRIPOS>MOLECULE
molecule
   45    48     1     0     0
SMALL
bcc


@<TRIPOS>ATOM
      1 C4           0.0000     0.0000     0.0000 cx         1 5T5      -0.061400
      2 C6           2.2270     1.2760    -0.4000 c          1 5T5       0.614700
      3 C7           1.1370    -3.4230     1.5030 c2         1 5T5       0.580500
      4 C8           3.3850     1.2280    -1.3060 ca         1 5T5      -0.295900
      5 C20          3.8510     0.0060    -1.8020 ca         1 5T5       0.446200
      6 C21         -1.6570    -0.8870     5.6390 ca         1 5T5       0.159100
      7 C22          5.1190     2.3070    -2.5510 ca         1 5T5      -0.107900
      8 C26         -1.0040     0.2180     5.1120 ca         1 5T5      -0.161000
      9 C28          5.5230     1.0570    -2.9880 ca         1 5T5       0.464200
     10 Cl           5.9720     3.7320    -3.0580 cl         1 5T5      -0.059400
     11 N13          4.8860    -0.0360    -2.6130 nb         1 5T5      -0.686000
     12 C14          4.0380     2.4080    -1.6920 ca         1 5T5      -0.023000
     13 O15          1.8320     2.3400     0.0240 o          1 5T5      -0.506100
     14 C2           1.5300     0.0000     0.0000 cx         1 5T5      -0.252700
     15 C1           0.7640     0.0000     1.3250 cx         1 5T5      -0.114700
     16 C3           0.7640    -1.2950     2.1400 c3         1 5T5       0.190500
     17 C9           2.2080    -1.7150     2.5130 c3         1 5T5       0.122400
     18 O10          2.1320    -3.1480     2.3700 os         1 5T5      -0.412400
     19 N17          1.0020    -4.6380     0.8780 nz         1 5T5      -0.716600
     20 N5           0.3160    -2.4360     1.3180 n2         1 5T5      -0.550900
     21 C11         -0.0900    -1.1510     3.3740 ca         1 5T5      -0.141300
     22 C19         -0.2230     0.0840     3.9810 ca         1 5T5      -0.074000
     23 C25         -1.5160    -2.1270     5.0300 ca         1 5T5      -0.161000
     24 C18         -0.7340    -2.2560     3.9000 ca         1 5T5      -0.074000
     25 C12         -3.0670    -1.9390     7.2370 c3         1 5T5       0.579700
     26 F23         -3.9170    -2.4480     6.2500 f          1 5T5      -0.237300
     27 F24         -2.0990    -2.8970     7.5590 f          1 5T5      -0.237300
     28 H1          -0.4680     0.9390    -0.2700 hc         1 5T5       0.100700
     29 H2          -0.4680    -0.9390    -0.2700 hc         1 5T5       0.100700
     30 H3           3.3540    -0.9130    -1.5170 h4         1 5T5       0.010100
     31 H4          -1.1100     1.1870     5.5860 ha         1 5T5       0.166000
     32 H5           6.3720     0.9760    -3.6570 h4         1 5T5       0.050100
     33 H6           3.7000     3.3730    -1.3340 ha         1 5T5       0.180000
     34 H7           1.9840    -0.9480    -0.2610 hc         1 5T5       0.071700
     35 H8           0.7640     0.9480     1.8490 hc         1 5T5       0.135700
     36 H9           2.9250    -1.2950     1.8170 h1         1 5T5       0.109200
     37 H10          2.4390    -1.4400     3.5350 h1         1 5T5       0.109200
     38 H11          1.7140    -4.7350     0.1810 hn         1 5T5       0.485133
     39 H12          0.1020    -4.6920     0.4450 hn         1 5T5       0.485133
     40 H13          0.2870     0.9470     3.5690 ha         1 5T5       0.129500
     41 H14         -2.0220    -2.9930     5.4410 ha         1 5T5       0.166000
     42 H15         -0.6240    -3.2240     3.4250 ha         1 5T5       0.129500
     43 H16         -3.6480    -1.6770     8.1130 h3         1 5T5       0.139700
     44 H173         1.0910    -5.3720     1.5520 hn         1 5T5       0.485133
     45 O16         -2.4260    -0.7580     6.7510 os         1 5T5      -0.333900
@<TRIPOS>BOND
     1    10     7 1   
     2     7     9 ar  
     3     7    12 ar  
     4     9    11 ar  
     5    12     4 ar  
     6    11     5 ar  
     7     4     5 ar  
     8     4     2 1   
     9    19     3 1   
    10    14     2 1   
    11    14     1 1   
    12    14    15 1   
    13     2    13 2   
    14     3    20 2   
    15     3    18 1   
    16    20    16 1   
    17     1    15 1   
    18    18    17 1   
    19    15    16 1   
    20    16    17 1   
    21    16    21 1   
    22    21    24 ar  
    23    21    22 ar  
    24    24    23 ar  
    25    22     8 ar  
    26    23     6 ar  
    27     8     6 ar  
    28     6    45 1   
    29    45    25 1   
    30    26    25 1   
    31    27    25 1   
    32     1    28 1   
    33     1    29 1   
    34     5    30 1   
    35     8    31 1   
    36     9    32 1   
    37    12    33 1   
    38    14    34 1   
    39    15    35 1   
    40    17    36 1   
    41    17    37 1   
    42    19    38 1   
    43    19    39 1   
    44    22    40 1   
    45    23    41 1   
    46    24    42 1   
    47    25    43 1   
    48    44    19 1   
@<TRIPOS>SUBSTRUCTURE
     1 5T5         1 TEMP              0 ****  ****    0 ROOT
