@<TRIPOS>MOLECULE
5T6
   49    52     1     0     0
SMALL
bcc


@<TRIPOS>ATOM
      1 C4           0.0000     0.0000     0.0000 ca         1 5T6      -0.132300
      2 C5          -1.2170    -1.3800    -1.6630 ca         1 5T6      -0.118300
      3 C7          -1.9440     0.9930    -1.2520 c3         1 5T6       0.193400
      4 C8           1.3810    -0.0010     2.3980 ca         1 5T6       0.165100
      5 C10         -0.6060    -2.0690    -2.6920 ca         1 5T6      -0.097000
      6 C13         -1.0370    -3.3520    -3.0220 cp         1 5T6      -0.005000
      7 C15         -0.3840    -4.0960    -4.1270 cp         1 5T6      -0.158300
      8 C17          1.3820     0.0000     0.0000 ca         1 5T6      -0.054000
      9 C24          0.6640    -3.5220    -4.8450 ca         1 5T6       0.397200
     10 C26          0.8660    -5.3970    -6.1690 ca         1 5T6       0.421200
     11 C28         -2.0840    -3.9340    -2.3100 ca         1 5T6      -0.074000
     12 F22          3.9180    -1.1430     2.8190 f          1 5T6      -0.222800
     13 C14          3.4860    -0.0010     3.5010 c3         1 5T6       0.589700
     14 F21          3.9190     1.1410     2.8190 f          1 5T6      -0.222800
     15 O11          2.0590    -0.0000     3.5750 os         1 5T6      -0.307900
     16 C12         -0.0070    -0.0000     2.3940 ca         1 5T6      -0.093300
     17 C30         -0.7640    -0.0010     3.6980 c3         1 5T6       0.068200
     18 C9          -0.6940    -0.0000     1.1960 ca         1 5T6      -0.064000
     19 C19          2.0740     0.0000     1.1960 ca         1 5T6      -0.205000
     20 C1          -0.7520     0.0080    -1.3060 c3         1 5T6       0.217800
     21 N2           0.0720     0.5820    -2.3880 n2         1 5T6      -0.435900
     22 C3          -0.6510     1.4350    -3.0440 c2         1 5T6       0.332500
     23 N20         -0.1750     2.1550    -4.1130 nz         1 5T6       0.237400
     24 O6          -1.9120     1.5530    -2.5820 os         1 5T6      -0.383400
     25 C27         -2.2590    -1.9610    -0.9630 ca         1 5T6      -0.090000
     26 C29         -2.6870    -3.2370    -1.2830 ca         1 5T6      -0.071000
     27 C18         -0.8060    -5.3850    -4.4610 ca         1 5T6      -0.057000
     28 N16          1.2450    -4.1810    -5.8260 nb         1 5T6      -0.565000
     29 C23         -0.1590    -6.0400    -5.4960 ca         1 5T6      -0.158900
     30 Cl          -0.6440    -7.6410    -5.9620 cl         1 5T6       0.026600
     31 H1          -2.8740     0.4660    -1.0770 h1         1 5T6       0.061700
     32 H2          -1.7770     1.7610    -0.5060 h1         1 5T6       0.061700
     33 H3           0.1780    -1.5950    -3.2710 ha         1 5T6       0.113000
     34 H4           2.1780     0.0270    -0.7350 ha         1 5T6       0.126000
     35 H5           1.0040    -2.5240    -4.5930 h4         1 5T6      -0.026900
     36 H6           1.3730    -5.9040    -6.9810 h4         1 5T6      -0.001900
     37 H7          -2.4220    -4.9320    -2.5610 ha         1 5T6       0.124000
     38 H8           3.9060     0.0030     4.5000 h3         1 5T6       0.071700
     39 H9          -0.5300    -0.9020     4.2510 hc         1 5T6       0.017700
     40 H10         -1.8280     0.0340     3.4980 hc         1 5T6       0.017700
     41 H11         -0.4780     0.8660     4.2820 hc         1 5T6       0.017700
     42 H12         -1.7770     0.0210     1.1930 ha         1 5T6       0.113000
     43 H13          3.1570     0.0430     1.1950 ha         1 5T6       0.144000
     44 H14         -0.7300     1.9570    -4.9220 hn         1 5T6       0.223467
     45 H15         -0.2260     3.1330    -3.9060 hn         1 5T6       0.223467
     46 H16         -2.7360    -1.4190    -0.1560 ha         1 5T6       0.111000
     47 H17         -3.5030    -3.6880    -0.7300 ha         1 5T6       0.118000
     48 H18         -1.6110    -5.8640    -3.9180 ha         1 5T6       0.130000
     49 H203         0.7730     1.8930    -4.2960 hn         1 5T6       0.223467
@<TRIPOS>BOND
     1     1     8 ar  
     2     1    18 ar  
     3     1    20 1   
     4     2     5 ar  
     5     2    20 1   
     6     2    25 ar  
     7     3    20 1   
     8     3    24 1   
     9     3    31 1   
    10     3    32 1   
    11     4    15 1   
    12     4    16 ar  
    13     4    19 ar  
    14     5     6 ar  
    15     5    33 1   
    16     6     7 1   
    17     6    11 ar  
    18     7     9 ar  
    19     7    27 ar  
    20     8    19 ar  
    21     8    34 1   
    22     9    28 ar  
    23     9    35 1   
    24    10    28 ar  
    25    10    29 ar  
    26    10    36 1   
    27    11    26 ar  
    28    11    37 1   
    29    12    13 1   
    30    13    14 1   
    31    13    15 1   
    32    13    38 1   
    33    16    17 1   
    34    16    18 ar  
    35    17    39 1   
    36    17    40 1   
    37    17    41 1   
    38    18    42 1   
    39    19    43 1   
    40    20    21 1   
    41    21    22 2   
    42    22    23 1   
    43    22    24 1   
    44    23    44 1   
    45    23    45 1   
    46    23    49 1   
    47    25    26 ar  
    48    25    46 1   
    49    26    47 1   
    50    27    29 ar  
    51    27    48 1   
    52    29    30 1   
@<TRIPOS>SUBSTRUCTURE
     1 5T6         1 TEMP              0 ****  ****    0 ROOT
