@<TRIPOS>MOLECULE
5T7
   45    48     1     0     0
SMALL
bcc


@<TRIPOS>ATOM
      1 C5           0.0000     0.0000     0.0000 c2         1 5T7       0.368500
      2 C7          -2.3990     1.5760     3.2840 cx         1 5T7      -0.185700
      3 C8          -1.3520     1.7150     4.3910 cx         1 5T7      -0.018400
      4 C10         -3.3620     2.7190     3.0880 c          1 5T7       0.584100
      5 N12         -4.6670     2.5600     3.3890 ns         1 5T7       0.017900
      6 C13         -0.2390    -0.5560     3.2710 c3         1 5T7      -0.016100
      7 C17         -5.5400     3.6460     3.2980 ca         1 5T7      -0.166700
      8 C20         -7.2710     5.8350     3.0810 ca         1 5T7      -0.077000
      9 C21         -6.6070     3.7790     4.2140 ca         1 5T7       0.363600
     10 C22         -7.4790     4.8890     4.0980 ca         1 5T7      -0.130300
     11 C24         -8.6840     4.0630     5.9770 ca         1 5T7      -0.167900
     12 C1          -0.1480     0.6470     2.3290 c3         1 5T7       0.111200
     13 C2           1.3190     1.0500     2.1580 c3         1 5T7       0.332600
     14 C3           2.0040     0.0000     1.2710 c3         1 5T7       0.184400
     15 O4           1.3450     0.0000     0.0000 os         1 5T7      -0.385400
     16 N6          -0.7170     0.2910     1.0310 n2         1 5T7      -0.455900
     17 C9          -0.9320     1.8180     2.9230 cx         1 5T7      -0.123700
     18 O11         -2.9630     3.7800     2.6600 o          1 5T7      -0.639100
     19 F14          1.3960     2.3070     1.5490 f          1 5T7      -0.183800
     20 F15          1.9460     1.0930     3.4080 f          1 5T7      -0.183800
     21 N16         -0.6480    -0.3250    -1.1670 nz         1 5T7       0.212400
     22 C18         -5.3660     4.5970     2.3170 ca         1 5T7      -0.092000
     23 C19         -6.2300     5.6840     2.2160 ca         1 5T7      -0.081000
     24 C23         -8.5420     5.0210     5.0120 ca         1 5T7      -0.041000
     25 C25         -7.7900     2.9950     6.0350 ca         1 5T7       0.428200
     26 N26         -6.8020     2.8780     5.1800 nb         1 5T7      -0.590000
     27 Cl2         -9.9770     4.1760     7.1300 cl         1 5T7       0.013600
     28 H1          -2.7470     0.5640     3.1130 hc         1 5T7       0.064700
     29 H2          -1.0780     0.7950     4.8930 hc         1 5T7       0.067200
     30 H3          -1.3720     2.6490     4.9380 hc         1 5T7       0.067200
     31 H4          -5.0170     1.6560     3.6350 hn         1 5T7       0.177500
     32 H5           0.2290    -1.4160     2.8060 hc         1 5T7       0.039033
     33 H6           0.2700    -0.3270     4.2000 hc         1 5T7       0.039033
     34 H7          -1.2800    -0.7780     3.4740 hc         1 5T7       0.039033
     35 H8          -7.9340     6.6860     2.9880 ha         1 5T7       0.115000
     36 H9           1.9160    -0.9780     1.7290 h1         1 5T7       0.070200
     37 H10          3.0490     0.2570     1.1410 h1         1 5T7       0.070200
     38 H11         -0.7090     2.8220     2.5850 hc         1 5T7       0.118700
     39 H12          0.0050    -0.7280    -1.8100 hn         1 5T7       0.227467
     40 H13         -1.3750    -0.9840    -0.9730 hn         1 5T7       0.227467
     41 H14         -4.5450     4.5000     1.6170 ha         1 5T7       0.140000
     42 H15         -6.0730     6.4190     1.4370 ha         1 5T7       0.110000
     43 H16         -9.2280     5.8570     4.9510 ha         1 5T7       0.128000
     44 H17         -7.9140     2.2430     6.8050 h4         1 5T7      -0.009900
     45 H163        -1.0550     0.4990    -1.5640 hn         1 5T7       0.227467
@<TRIPOS>BOND
     1     1    15 1   
     2     1    16 2   
     3     1    21 1   
     4     2     3 1   
     5     2     4 1   
     6     2    17 1   
     7     2    28 1   
     8     3    17 1   
     9     3    29 1   
    10     3    30 1   
    11     4     5 1   
    12     4    18 2   
    13     5     7 1   
    14     5    31 1   
    15     6    12 1   
    16     6    32 1   
    17     6    33 1   
    18     6    34 1   
    19     7     9 ar  
    20     7    22 ar  
    21     8    10 ar  
    22     8    23 ar  
    23     8    35 1   
    24     9    10 ar  
    25     9    26 ar  
    26    10    24 ar  
    27    11    24 ar  
    28    11    25 ar  
    29    11    27 1   
    30    12    13 1   
    31    12    16 1   
    32    12    17 1   
    33    13    14 1   
    34    13    19 1   
    35    13    20 1   
    36    14    15 1   
    37    14    36 1   
    38    14    37 1   
    39    17    38 1   
    40    21    39 1   
    41    21    40 1   
    42    21    45 1   
    43    22    23 ar  
    44    22    41 1   
    45    23    42 1   
    46    24    43 1   
    47    25    26 ar  
    48    25    44 1   
@<TRIPOS>SUBSTRUCTURE
     1 5T7         1 TEMP              0 ****  ****    0 ROOT
