@<TRIPOS>MOLECULE
molecule
   45    48     1     0     0
SMALL
bcc


@<TRIPOS>ATOM
      1 C5           0.0000     0.0000     0.0000 c2         1 5T7       0.638500
      2 C7          -2.3990     1.5760     3.2840 cx         1 5T7      -0.203700
      3 C8          -1.3520     1.7150     4.3910 cx         1 5T7      -0.075400
      4 C10         -3.3620     2.7190     3.0880 c          1 5T7       0.688100
      5 N12         -4.6670     2.5600     3.3890 ns         1 5T7      -0.446100
      6 C13         -0.2390    -0.5560     3.2710 c3         1 5T7      -0.098100
      7 C17         -5.5400     3.6460     3.2980 ca         1 5T7      -0.004700
      8 C20         -7.2710     5.8350     3.0810 ca         1 5T7      -0.112000
      9 C21         -6.6070     3.7790     4.2140 ca         1 5T7       0.399600
     10 C22         -7.4790     4.8890     4.0980 ca         1 5T7      -0.134300
     11 C24         -8.6840     4.0630     5.9770 ca         1 5T7      -0.099900
     12 C1          -0.1480     0.6470     2.3290 c3         1 5T7       0.146200
     13 C2           1.3190     1.0500     2.1580 c3         1 5T7       0.356600
     14 C3           2.0040     0.0000     1.2710 c3         1 5T7       0.112400
     15 O4           1.3450     0.0000     0.0000 os         1 5T7      -0.426400
     16 N6          -0.7170     0.2910     1.0310 n2         1 5T7      -0.604900
     17 C9          -0.9320     1.8180     2.9230 cx         1 5T7      -0.124700
     18 O11         -2.9630     3.7800     2.6600 o          1 5T7      -0.595100
     19 F14          1.3960     2.3070     1.5490 f          1 5T7      -0.194300
     20 F15          1.9460     1.0930     3.4080 f          1 5T7      -0.194300
     21 N16         -0.6480    -0.3250    -1.1670 nz         1 5T7      -0.727600
     22 C18         -5.3660     4.5970     2.3170 ca         1 5T7      -0.119000
     23 C19         -6.2300     5.6840     2.2160 ca         1 5T7      -0.109000
     24 C23         -8.5420     5.0210     5.0120 ca         1 5T7      -0.067000
     25 C25         -7.7900     2.9950     6.0350 ca         1 5T7       0.447200
     26 N26         -6.8020     2.8780     5.1800 nb         1 5T7      -0.691000
     27 Cl2         -9.9770     4.1760     7.1300 cl         1 5T7      -0.081400
     28 H1          -2.7470     0.5640     3.1130 hc         1 5T7       0.090700
     29 H2          -1.0780     0.7950     4.8930 hc         1 5T7       0.100200
     30 H3          -1.3720     2.6490     4.9380 hc         1 5T7       0.100200
     31 H4          -5.0170     1.6560     3.6350 hn         1 5T7       0.341500
     32 H5           0.2290    -1.4160     2.8060 hc         1 5T7       0.070367
     33 H6           0.2700    -0.3270     4.2000 hc         1 5T7       0.070367
     34 H7          -1.2800    -0.7780     3.4740 hc         1 5T7       0.070367
     35 H8          -7.9340     6.6860     2.9880 ha         1 5T7       0.144000
     36 H9           1.9160    -0.9780     1.7290 h1         1 5T7       0.115700
     37 H10          3.0490     0.2570     1.1410 h1         1 5T7       0.115700
     38 H11         -0.7090     2.8220     2.5850 hc         1 5T7       0.141700
     39 H12          0.0050    -0.7280    -1.8100 hn         1 5T7       0.484800
     40 H13         -1.3750    -0.9840    -0.9730 hn         1 5T7       0.484800
     41 H14         -4.5450     4.5000     1.6170 ha         1 5T7       0.162000
     42 H15         -6.0730     6.4190     1.4370 ha         1 5T7       0.142000
     43 H16         -9.2280     5.8570     4.9510 ha         1 5T7       0.162000
     44 H17         -7.9140     2.2430     6.8050 h4         1 5T7       0.039100
     45 H163        -1.0550     0.4990    -1.5640 hn         1 5T7       0.484800
@<TRIPOS>BOND
     1    27    11 1   
     2    11    25 ar  
     3    11    24 ar  
     4    25    26 ar  
     5    24    10 ar  
     6    26     9 ar  
     7    10     9 ar  
     8    10     8 ar  
     9     9     7 ar  
    10     8    23 ar  
    11     7     5 1   
    12     7    22 ar  
    13    23    22 ar  
    14     5     4 1   
    15    21     1 1   
    16     4     2 1   
    17     4    18 2   
    18     2     3 1   
    19     2    17 1   
    20     3    17 1   
    21     1    16 2   
    22     1    15 1   
    23    16    12 1   
    24    15    14 1   
    25    17    12 1   
    26    12     6 1   
    27    12    13 1   
    28    14    13 1   
    29    13    20 1   
    30    13    19 1   
    31     2    28 1   
    32     3    29 1   
    33     3    30 1   
    34     5    31 1   
    35     6    32 1   
    36     6    33 1   
    37     6    34 1   
    38     8    35 1   
    39    14    36 1   
    40    14    37 1   
    41    17    38 1   
    42    21    39 1   
    43    21    40 1   
    44    22    41 1   
    45    23    42 1   
    46    24    43 1   
    47    25    44 1   
    48    45    21 1   
@<TRIPOS>SUBSTRUCTURE
     1 5T7         1 TEMP              0 ****  ****    0 ROOT
