@<TRIPOS>MOLECULE
5T8
   46    49     1     0     0
SMALL
bcc


@<TRIPOS>ATOM
      1 C4           0.0000     0.0000     0.0000 c3         1 5T8       0.183100
      2 C6           0.1480    -0.4050     2.3440 c3         1 5T8       0.173400
      3 C7           2.4120    -2.4660     5.1510 ca         1 5T8      -0.051000
      4 C8           3.7510    -2.7140     4.9250 ca         1 5T8      -0.125000
      5 C10          3.7100    -1.2000     3.0560 ca         1 5T8      -0.139000
      6 C13          1.7220     1.4210     2.9980 c3         1 5T8       0.014900
      7 C17          6.2330    -2.0690     5.9860 ca         1 5T8      -0.199000
      8 C20          7.9870    -2.8080     4.5060 ca         1 5T8       0.334600
      9 C21          8.8680    -2.8700     5.6130 ca         1 5T8      -0.102300
     10 C22         10.1990    -3.2780     5.4030 ca         1 5T8      -0.051000
     11 C24          9.6620    -3.5150     3.0870 ca         1 5T8       0.412200
     12 C1           1.6190     0.0120     2.4120 c3         1 5T8       0.123500
     13 N2           2.2020     0.0000     1.0730 n2         1 5T8      -0.323900
     14 C3           1.5020     0.0000     0.0000 c2         1 5T8       0.061200
     15 O5          -0.4880     0.3440     1.3000 os         1 5T8      -0.359600
     16 C9           4.4070    -2.0810     3.8750 ca         1 5T8       0.030600
     17 C11          2.3720    -0.9520     3.2910 ca         1 5T8      -0.102300
     18 C12          1.7230    -1.5880     4.3340 ca         1 5T8      -0.126000
     19 N14          2.1550    -0.0010    -1.2040 nz         1 5T8       0.193400
     20 N15          5.7620    -2.3290     3.6440 nu         1 5T8      -0.205000
     21 C16          6.6510    -2.3990     4.7150 ca         1 5T8      -0.022700
     22 C18          7.1120    -2.1290     7.0640 ca         1 5T8      -0.045000
     23 C19          8.4050    -2.5210     6.8920 ca         1 5T8      -0.118000
     24 C23         10.5820    -3.5990     4.1310 ca         1 5T8      -0.157900
     25 N25          8.4240    -3.1340     3.2880 nb         1 5T8      -0.582000
     26 Cl2         12.2110    -4.1090     3.8170 cl         1 5T8       0.011600
     27 H1          -0.3580     0.7260    -0.7200 h1         1 5T8       0.037700
     28 H2          -0.3580    -0.9870    -0.2670 h1         1 5T8       0.037700
     29 H3           0.0800    -1.4640     2.1260 h1         1 5T8       0.049200
     30 H4          -0.3340    -0.1900     3.2900 h1         1 5T8       0.049200
     31 H7           4.2180    -0.7050     2.2370 ha         1 5T8       0.112000
     32 H8           1.3790     1.4110     4.0250 hc         1 5T8       0.029700
     33 H9           2.7530     1.7520     2.9640 hc         1 5T8       0.029700
     34 H10          1.1060     2.0990     2.4180 hc         1 5T8       0.029700
     35 H11          5.2090    -1.7550     6.1480 ha         1 5T8       0.130000
     36 H12         10.8990    -3.3370     6.2270 ha         1 5T8       0.129000
     37 H13          9.9790    -3.7720     2.0830 h4         1 5T8      -0.011900
     38 H14          0.6720    -1.3930     4.5150 ha         1 5T8       0.113000
     39 H15          1.9720    -0.8610    -1.6820 hn         1 5T8       0.217133
     40 H16          3.1400     0.0910    -1.0500 hn         1 5T8       0.217133
     41 H17          6.0910    -2.4760     2.7100 hn         1 5T8       0.302800
     42 H18          6.7610    -1.8660     8.0540 ha         1 5T8       0.107000
     43 H19          9.0760    -2.5620     7.7410 ha         1 5T8       0.117000
     44 H5           1.9000    -2.9600     5.9670 ha         1 5T8       0.117000
     45 H143         1.8390     0.7720    -1.7560 hn         1 5T8       0.217133
     46 H6           4.2910    -3.4010     5.5650 ha         1 5T8       0.140000
@<TRIPOS>BOND
     1     1    14 1   
     2     1    15 1   
     3     1    27 1   
     4     1    28 1   
     5     2    12 1   
     6     2    15 1   
     7     2    29 1   
     8     2    30 1   
     9     3     4 ar  
    10     3    18 ar  
    11     3    44 1   
    12     4    16 ar  
    13     4    46 1   
    14     5    16 ar  
    15     5    17 ar  
    16     5    31 1   
    17     6    12 1   
    18     6    32 1   
    19     6    33 1   
    20     6    34 1   
    21     7    21 ar  
    22     7    22 ar  
    23     7    35 1   
    24     8     9 ar  
    25     8    21 ar  
    26     8    25 ar  
    27     9    10 ar  
    28     9    23 ar  
    29    10    24 ar  
    30    10    36 1   
    31    11    24 ar  
    32    11    25 ar  
    33    11    37 1   
    34    12    13 1   
    35    12    17 1   
    36    13    14 2   
    37    14    19 1   
    38    16    20 1   
    39    17    18 ar  
    40    18    38 1   
    41    19    39 1   
    42    19    40 1   
    43    19    45 1   
    44    20    21 1   
    45    20    41 1   
    46    22    23 ar  
    47    22    42 1   
    48    23    43 1   
    49    24    26 1   
@<TRIPOS>SUBSTRUCTURE
     1 5T8         1 TEMP              0 ****  ****    0 ROOT
