@<TRIPOS>MOLECULE
molecule
   46    49     1     0     0
SMALL
bcc


@<TRIPOS>ATOM
      1 C4           0.0000     0.0000     0.0000 c3         1 5T8       0.070100
      2 C6           0.1480    -0.4050     2.3440 c3         1 5T8       0.098400
      3 C7           2.4120    -2.4660     5.1510 ca         1 5T8      -0.090000
      4 C8           3.7510    -2.7140     4.9250 ca         1 5T8      -0.146000
      5 C10          3.7100    -1.2000     3.0560 ca         1 5T8      -0.153000
      6 C13          1.7220     1.4210     2.9980 c3         1 5T8      -0.078100
      7 C17          6.2330    -2.0690     5.9860 ca         1 5T8      -0.208000
      8 C20          7.9870    -2.8080     4.5060 ca         1 5T8       0.375600
      9 C21          8.8680    -2.8700     5.6130 ca         1 5T8      -0.111300
     10 C22         10.1990    -3.2780     5.4030 ca         1 5T8      -0.074000
     11 C24          9.6620    -3.5150     3.0870 ca         1 5T8       0.435200
     12 C1           1.6190     0.0120     2.4120 c3         1 5T8       0.169500
     13 N2           2.2020     0.0000     1.0730 n2         1 5T8      -0.519900
     14 C3           1.5020     0.0000     0.0000 c2         1 5T8       0.378200
     15 O5          -0.4880     0.3440     1.3000 os         1 5T8      -0.366600
     16 C9           4.4070    -2.0810     3.8750 ca         1 5T8       0.176600
     17 C11          2.3720    -0.9520     3.2910 ca         1 5T8      -0.086300
     18 C12          1.7230    -1.5880     4.3340 ca         1 5T8      -0.149000
     19 N14          2.1550    -0.0010    -1.2040 nz         1 5T8      -0.740600
     20 N15          5.7620    -2.3290     3.6440 nu         1 5T8      -0.667000
     21 C16          6.6510    -2.3990     4.7150 ca         1 5T8       0.138300
     22 C18          7.1120    -2.1290     7.0640 ca         1 5T8      -0.080000
     23 C19          8.4050    -2.5210     6.8920 ca         1 5T8      -0.145000
     24 C23         10.5820    -3.5990     4.1310 ca         1 5T8      -0.091900
     25 N25          8.4240    -3.1340     3.2880 nb         1 5T8      -0.690000
     26 Cl2         12.2110    -4.1090     3.8170 cl         1 5T8      -0.081400
     27 H1          -0.3580     0.7260    -0.7200 h1         1 5T8       0.083700
     28 H2          -0.3580    -0.9870    -0.2670 h1         1 5T8       0.083700
     29 H3           0.0800    -1.4640     2.1260 h1         1 5T8       0.089700
     30 H4          -0.3340    -0.1900     3.2900 h1         1 5T8       0.089700
     31 H7           4.2180    -0.7050     2.2370 ha         1 5T8       0.138000
     32 H8           1.3790     1.4110     4.0250 hc         1 5T8       0.067033
     33 H9           2.7530     1.7520     2.9640 hc         1 5T8       0.067033
     34 H10          1.1060     2.0990     2.4180 hc         1 5T8       0.067033
     35 H11          5.2090    -1.7550     6.1480 ha         1 5T8       0.146000
     36 H12         10.8990    -3.3370     6.2270 ha         1 5T8       0.163000
     37 H13          9.9790    -3.7720     2.0830 h4         1 5T8       0.036100
     38 H14          0.6720    -1.3930     4.5150 ha         1 5T8       0.132000
     39 H15          1.9720    -0.8610    -1.6820 hn         1 5T8       0.467800
     40 H16          3.1400     0.0910    -1.0500 hn         1 5T8       0.467800
     41 H17          6.0910    -2.4760     2.7100 hn         1 5T8       0.468800
     42 H18          6.7610    -1.8660     8.0540 ha         1 5T8       0.140000
     43 H19          9.0760    -2.5620     7.7410 ha         1 5T8       0.144000
     44 H5           1.9000    -2.9600     5.9670 ha         1 5T8       0.151000
     45 H143         1.8390     0.7720    -1.7560 hn         1 5T8       0.467800
     46 H6           4.2910    -3.4010     5.5650 ha         1 5T8       0.164000
@<TRIPOS>BOND
     1    26    24 1
     2    24    11 ar
     3    24    10 ar
     4    11    25 ar
     5    10     9 ar
     6    25     8 ar
     7     9     8 ar
     8     9    23 ar
     9     8    21 ar
    10    23    22 ar
    11    21    20 1
    12    21     7 ar
    13    22     7 ar
    14    20    16 1
    15    19    14 1
    16    16     5 ar
    17    16     4 ar
    18     5    17 ar
    19    14    13 2
    20    14     1 1
    21     4     3 ar
    22    13    12 1
    23     1    15 1
    24    17    12 1
    25    17    18 ar
    26     3    18 ar
    27    12     6 1
    28    12     2 1
    29    15     2 1
    30     1    27 1
    31     1    28 1
    32     2    29 1
    33     2    30 1
    34     3    44 1
    35     4    46 1
    36     5    31 1
    37     6    32 1
    38     6    33 1
    39     6    34 1
    40     7    35 1
    41    10    36 1
    42    11    37 1
    43    18    38 1
    44    19    39 1
    45    19    40 1
    46    20    41 1
    47    22    42 1
    48    23    43 1
    49    45    19 1
@<TRIPOS>SUBSTRUCTURE
     1 5T8         1 TEMP              0 ****  ****    0 ROOT
