@<TRIPOS>MOLECULE
molecule
   67    71     1     0     0
SMALL
bcc


@<TRIPOS>ATOM
      1 N1           0.0000     0.0000     0.0000 n          1 5T9      -0.413800
      2 C2           1.4740     0.0000     0.0000 c3         1 5T9      -0.032000
      3 C3           1.8710     0.0000     1.4970 c3         1 5T9      -0.158900
      4 C4           0.7780    -0.9160     2.1080 c3         1 5T9      -0.243400
      5 C5          -0.4710    -0.5700     1.2720 c3         1 5T9       0.046700
      6 C6          -1.3150     0.4400     2.0040 c          1 5T9       0.665100
      7 S7           3.5190    -0.7120     1.7310 s6         1 5T9       0.324100
      8 N8          -2.1490     0.0380     2.9840 ns         1 5T9      -0.549900
      9 O9          -1.2460     1.6150     1.7120 o          1 5T9      -0.575100
     10 C10         -2.9710     1.0200     3.6960 cx         1 5T9       0.035100
     11 C11         -3.4580     2.1810     2.8680 c2         1 5T9       0.446200
     12 N12         -3.5930     2.0540     1.6030 n2         1 5T9      -0.686100
     13 C13         -3.8940     0.5000     4.8000 cx         1 5T9      -0.138400
     14 C14         -2.6350     1.2900     5.1640 cx         1 5T9      -0.138400
     15 O15          5.0360    -1.3430     1.9640 oh         1 5T9      -0.663700
     16 O16          3.3760    -2.2590     2.2700 oh         1 5T9      -0.663700
     17 C17          4.2070    -1.2140     0.1030 ca         1 5T9       0.001500
     18 C18          5.0240    -2.3280     0.0110 ca         1 5T9       0.100400
     19 C19          5.5460    -2.7090    -1.2240 ca         1 5T9      -0.147000
     20 C20          5.2480    -1.9740    -2.3570 ca         1 5T9       0.156100
     21 C21          4.4310    -0.8600    -2.2660 ca         1 5T9      -0.196000
     22 C22          3.9090    -0.4790    -1.0320 ca         1 5T9      -0.068000
     23 Cl2          5.5160    -3.1970     1.4930 cl         1 5T9      -0.016400
     24 O24          5.7610    -2.3660    -3.6000 os         1 5T9      -0.326900
     25 C25          4.8970    -2.1250    -4.6730 c3         1 5T9       0.121700
     26 C26         -0.8840    -0.5370    -1.0730 c          1 5T9       0.669100
     27 C27         -2.4270    -0.4580    -0.9160 cy         1 5T9      -0.204300
     28 O28         -0.4110    -1.0170    -2.0340 o          1 5T9      -0.526100
     29 C29         -2.8810    -0.8600     0.4380 cy         1 5T9       0.053800
     30 N30         -3.3630     0.5090     0.6850 n6         1 5T9      -0.637200
     31 C31         -2.8980     0.9110    -0.6690 cy         1 5T9       0.053800
     32 C32         -3.1970    -1.1600    -2.0320 ca         1 5T9       0.438600
     33 N33         -3.3570    -2.5020    -2.0020 nb         1 5T9      -0.659000
     34 C34         -4.0400    -3.1270    -2.9920 ca         1 5T9       0.426200
     35 C35         -4.5740    -2.3920    -4.0350 ca         1 5T9      -0.081900
     36 C36         -4.4150    -1.0480    -4.0670 ca         1 5T9      -0.084000
     37 C37         -3.7310    -0.4230    -3.0750 ca         1 5T9      -0.227300
     38 Cl3         -5.3910    -3.2250    -5.3850 cl         1 5T9      -0.122400
     39 H39          1.8470     0.9450     0.3770 h1         1 5T9       0.092200
     40 H40          1.8470    -0.1850    -1.0000 h1         1 5T9       0.092200
     41 H41          1.8110     0.9990     1.9100 h1         1 5T9       0.081700
     42 H42          1.1920    -1.5010     2.9200 hc         1 5T9       0.097200
     43 H43         -0.0580    -0.3200     2.4550 hc         1 5T9       0.097200
     44 H44         -1.0450    -1.4690     1.0810 h1         1 5T9       0.083700
     45 H45         -2.1860    -0.9280     3.2430 hn         1 5T9       0.312500
     46 H1          -3.1930     3.1940     3.1460 h4         1 5T9      -0.029200
     47 H2          -3.9170     2.8250     1.0530 hn         1 5T9       0.368400
     48 H46         -4.8180     1.0500     4.9330 hc         1 5T9       0.079950
     49 H47         -3.8670    -0.5700     4.9670 hc         1 5T9       0.079950
     50 H48         -2.8220     2.2990     5.5090 hc         1 5T9       0.079950
     51 H49         -1.8050     0.7210     5.5650 hc         1 5T9       0.079950
     52 H3           5.4320    -1.5270     1.1290 ho         1 5T9       0.459000
     53 H4           3.7170    -2.3190     3.1470 ho         1 5T9       0.459000
     54 H50          6.1850    -3.5810    -1.2960 ha         1 5T9       0.164000
     55 H51          4.1970    -0.2850    -3.1540 ha         1 5T9       0.148000
     56 H52          3.2700     0.3930    -0.9600 ha         1 5T9       0.161000
     57 H5           4.9960    -1.0940    -4.9920 h1         1 5T9       0.041700
     58 H6           3.8750    -2.3100    -4.3630 h1         1 5T9       0.041700
     59 H7           5.1490    -2.7830    -5.4950 h1         1 5T9       0.041700
     60 H56         -2.0600    -1.1370     1.0890 h1         1 5T9       0.076200
     61 H57         -3.6850    -1.5860     0.4100 h1         1 5T9       0.076200
     62 H58         -4.3630     0.5120     0.7090 hn         1 5T9       0.346800
     63 H59         -3.7140     1.1950    -1.3220 h1         1 5T9       0.076200
     64 H60         -2.0890     1.6300    -0.6360 h1         1 5T9       0.076200
     65 H61         -4.1680    -4.2020    -2.9670 h4         1 5T9       0.040100
     66 H62         -4.8330    -0.4720    -4.8840 ha         1 5T9       0.150000
     67 H63         -3.6020     0.6520    -3.0990 ha         1 5T9       0.149000
@<TRIPOS>BOND
     1     1     2 1
     2     1     5 1
     3     1    26 1
     4     2     3 1
     5     3     4 1
     6     3     7 1
     7     4     5 1
     8     5     6 1
     9     6     8 1
    10     6     9 2
    11     7    15 1
    12     7    16 1
    13     7    17 1
    14     8    10 1
    15    10    11 1
    16    10    13 1
    17    10    14 1
    18    11    12 2
    19    13    14 1
    20    17    18 ar
    21    17    22 ar
    22    18    19 ar
    23    18    23 1
    24    19    20 ar
    25    20    21 ar
    26    20    24 1
    27    21    22 ar
    28    24    25 1
    29    26    27 1
    30    26    28 2
    31    27    29 1
    32    27    31 1
    33    27    32 1
    34    29    30 1
    35    30    31 1
    36    32    33 ar
    37    32    37 ar
    38    33    34 ar
    39    34    35 ar
    40    35    36 ar
    41    35    38 1
    42    36    37 ar
    43     2    39 1
    44     2    40 1
    45     3    41 1
    46     4    42 1
    47     4    43 1
    48     5    44 1
    49     8    45 1
    50    11    46 1
    51    12    47 1
    52    13    48 1
    53    13    49 1
    54    14    50 1
    55    14    51 1
    56    15    52 1
    57    16    53 1
    58    19    54 1
    59    21    55 1
    60    22    56 1
    61    25    57 1
    62    25    58 1
    63    25    59 1
    64    29    60 1
    65    29    61 1
    66    30    62 1
    67    31    63 1
    68    31    64 1
    69    34    65 1
    70    36    66 1
    71    37    67 1
@<TRIPOS>SUBSTRUCTURE
     1 5T9         1 TEMP              0 ****  ****    0 ROOT
