@<TRIPOS>MOLECULE
5T9
   67    73     1     0     0
SMALL
bcc


@<TRIPOS>ATOM
      1 N1           0.0000     0.0000     0.0000 n          1 5T9      -0.030000
      2 C2           1.4740     0.0000     0.0000 c3         1 5T9      -0.221000
      3 C3           1.8710     0.0000     1.4970 c3         1 5T9      -0.452000
      4 C4           0.7780    -0.9160     2.1080 c3         1 5T9      -0.286000
      5 C5          -0.4710    -0.5700     1.2720 DU         1 5T9      -0.045000
      6 C6          -1.3150     0.4400     2.0040 c2         1 5T9       0.173000
      7 S7           3.5190    -0.7120     1.7310 s6         1 5T9       1.199000
      8 N8          -2.1490     0.0380     2.9840 ns         1 5T9       0.030000
      9 O9          -1.2460     1.6150     1.7120 o          1 5T9      -0.354000
     10 C10         -2.9710     1.0200     3.6960 cx         1 5T9      -0.123000
     11 C11         -3.4580     2.1810     2.8680 c2         1 5T9      -0.062000
     12 N12         -3.5930     2.0540     1.6030 n2         1 5T9      -0.512000
     13 C13         -3.8940     0.5000     4.8000 cx         1 5T9      -0.149000
     14 C14         -2.6350     1.2900     5.1640 cx         1 5T9      -0.149000
     15 O15          5.0360    -1.3430     1.9650 oh         1 5T9      -0.613500
     16 O16          3.3760    -2.2720     2.2590 oh         1 5T9      -0.613500
     17 C17          4.1990    -1.2080     0.1210 ca         1 5T9      -0.311000
     18 C18          5.0250    -2.3190     0.0300 ca         1 5T9      -0.053000
     19 C19          5.5430    -2.6970    -1.1970 ca         1 5T9      -0.136000
     20 C20          5.2370    -1.9670    -2.3330 ca         1 5T9       0.118000
     21 C21          4.4120    -0.8570    -2.2430 ca         1 5T9      -0.183000
     22 C22          3.8930    -0.4780    -1.0160 ca         1 5T9      -0.069000
     23 Cl2          5.4960    -3.2020     1.5090 cl         1 5T9       0.198000
     24 O24          5.7700    -2.3420    -3.5700 os         1 5T9      -0.196000
     25 C25          4.8930    -2.1640    -4.6410 c3         1 5T9       0.053000
     26 C26         -0.8710    -0.5270    -1.0580 c2         1 5T9       0.280000
     27 C27         -2.3980    -0.4500    -0.9030 cy         1 5T9      -0.055000
     28 O28         -0.3930    -1.0110    -2.0290 o          1 5T9      -0.315000
     29 C29         -2.8510    -0.8350     0.4560 cy         1 5T9      -0.241500
     30 N30         -3.3300     0.5370     0.6880 nl         1 5T9       0.226000
     31 C31         -2.8720     0.9210    -0.6730 cy         1 5T9      -0.241500
     32 C32         -3.1630    -1.1610    -2.0030 c2         1 5T9      -0.030000
     33 N33         -3.3220    -2.5030    -1.9550 n2         1 5T9      -0.041000
     34 C34         -4.0040    -3.1410    -2.9350 c2         1 5T9      -0.046000
     35 C35         -4.5400    -2.4200    -3.9890 c2         1 5T9      -0.158000
     36 C36         -4.3820    -1.0740    -4.0390 c2         1 5T9      -0.057000
     37 C37         -3.6990    -0.4370    -3.0570 c2         1 5T9      -0.133000
     38 Cl3         -5.3540    -3.2730    -5.3310 cl         1 5T9       0.062000
     39 H39          1.8470     0.9450     0.3760 h1         1 5T9       0.126500
     40 H40          1.8470    -0.1860    -1.0000 h1         1 5T9       0.126500
     41 H41          1.8110     0.9990     1.9100 h1         1 5T9       0.128000
     42 H42         -0.0580    -0.3200     2.4550 DU         1 5T9       0.082000
     43 H43          1.1920    -1.5010     2.9210 hc         1 5T9       0.156000
     44 H44         -1.0450    -1.4690     1.0810 ha         1 5T9       0.103000
     45 H45         -2.1820    -0.9270     3.2480 hn         1 5T9       0.085000
     46 H1          -2.8410     3.0650     2.7580 h4         1 5T9       0.158000
     47 H2          -3.3750     1.1820     1.1620 DU         1 5T9       0.249000
     48 H46         -4.8190     1.0480     4.9320 hc         1 5T9       0.089000
     49 H47         -3.8650    -0.5690     4.9680 hc         1 5T9       0.089000
     50 H48         -2.8240     2.2990     5.5090 hc         1 5T9       0.089000
     51 H49         -1.8030     0.7230     5.5650 hc         1 5T9       0.089000
     52 H3           5.5820    -1.1310     1.2260 ho         1 5T9       0.253500
     53 H4           3.7700    -2.3530     3.1120 ho         1 5T9       0.253500
     54 H50          6.1880    -3.5650    -1.2680 ha         1 5T9       0.130000
     55 H51          4.1730    -0.2870    -3.1320 ha         1 5T9       0.124000
     56 H52          3.2490     0.3900    -0.9450 ha         1 5T9       0.140000
     57 H5           3.8820    -2.3900    -4.3210 h1         1 5T9       0.035333
     58 H6           4.9430    -1.1370    -4.9810 h1         1 5T9       0.035333
     59 H7           5.1720    -2.8270    -5.4500 h1         1 5T9       0.035333
     60 H56         -2.0290    -1.1060     1.1080 hx         1 5T9       0.125750
     61 H57         -3.6560    -1.5600     0.4380 hx         1 5T9       0.125750
     62 H58         -4.3310     0.5410     0.7170 hn         1 5T9       0.078000
     63 H59         -2.0640     1.6430    -0.6520 hx         1 5T9       0.125750
     64 H60         -3.6910     1.1950    -1.3270 hx         1 5T9       0.125750
     65 H61         -4.1300    -4.2160    -2.8940 h4         1 5T9       0.132000
     66 H62         -4.8000    -0.5090    -4.8630 ha         1 5T9       0.121000
     67 H63         -3.5710     0.6380    -3.0950 ha         1 5T9       0.127000
@<TRIPOS>BOND
     1     1     2 1   
     2     1     5 1   
     3     1    26 1   
     4     2     3 1   
     5     2    39 1   
     6     2    40 1   
     7     3     4 1   
     8     3     7 1   
     9     3    41 1   
    10     4     5 1   
    11     4    42 1   
    12     4    43 1   
    13     5     6 1   
    14     5    42 1   
    15     5    44 1   
    16     6     8 1   
    17     6     9 1   
    18     7    15 1   
    19     7    16 1   
    20     7    17 1   
    21     8    10 1   
    22     8    45 1   
    23    10    11 1   
    24    10    13 1   
    25    10    14 1   
    26    11    12 1   
    27    11    46 1   
    28    12    47 1   
    29    13    14 1   
    30    13    48 1   
    31    13    49 1   
    32    14    50 1   
    33    14    51 1   
    34    15    52 1   
    35    16    53 1   
    36    17    18 1   
    37    17    22 1   
    38    18    19 1   
    39    18    23 1   
    40    19    20 1   
    41    19    54 1   
    42    20    21 1   
    43    20    24 1   
    44    21    22 1   
    45    21    55 1   
    46    22    56 1   
    47    24    25 1   
    48    25    57 1   
    49    25    58 1   
    50    25    59 1   
    51    26    27 1   
    52    26    28 1   
    53    27    29 1   
    54    27    31 1   
    55    27    32 1   
    56    29    30 1   
    57    29    60 1   
    58    29    61 1   
    59    30    31 1   
    60    30    47 1   
    61    30    62 1   
    62    31    63 1   
    63    31    64 1   
    64    32    33 1   
    65    32    37 1   
    66    33    34 1   
    67    34    35 1   
    68    34    65 1   
    69    35    36 1   
    70    35    38 1   
    71    36    37 1   
    72    36    66 1   
    73    37    67 1   
@<TRIPOS>SUBSTRUCTURE
     1 5T9         1 TEMP              0 ****  ****    0 ROOT
