@<TRIPOS>MOLECULE
molecule
   52    55     1     0     0
SMALL
bcc


@<TRIPOS>ATOM
      1 C1           0.0000     0.0000     0.0000 c          1 5TA       0.820600
      2 C4           1.3380    -0.0200    -5.9150 cg         1 5TA      -0.065000
      3 C5           1.8110    -0.0010    -4.8400 ch         1 5TA      -0.053000
      4 C6           2.1540     0.0000    -1.1390 ca         1 5TA       0.097600
      5 C7          -0.7040     0.0270    -7.1710 ca         1 5TA       0.533300
      6 C8           0.5190     0.0040     2.2240 c3         1 5TA       0.123100
      7 C9           1.8170     0.0000     1.3920 c3         1 5TA       0.036000
      8 C10          0.7500     0.3230    -6.9170 ca         1 5TA      -0.068300
      9 C13          1.5800    -0.0010    -2.4000 ca         1 5TA      -0.119000
     10 C17          0.4440     1.2650     3.0870 c3         1 5TA       0.123400
     11 C18         -0.9750     2.2920     4.6940 ca         1 5TA       0.183100
     12 C19         -2.1180     2.3310     5.4800 ca         1 5TA      -0.114000
     13 C20         -2.3440     3.4070     6.3170 ca         1 5TA      -0.216300
     14 C22          3.5370     0.0070    -1.0040 ca         1 5TA      -0.175000
     15 C23          4.3470     0.0120    -2.1260 ca         1 5TA      -0.131000
     16 C24         -0.2910     4.4080     5.5900 ca         1 5TA      -0.065000
     17 C25         -0.9200     0.5330    -9.1390 ca         1 5TA       0.366200
     18 C26         -3.5850     3.4490     7.1700 c3         1 5TA       0.219100
     19 C27          1.2690     0.8720    -8.3820 ca         1 5TA      -0.051000
     20 C28          3.7860     0.0120    -3.3870 ca         1 5TA      -0.132000
     21 N12         -1.6820     0.0410    -8.0910 nb         1 5TA      -0.509000
     22 C31          0.3700     0.9170    -9.3360 ca         1 5TA      -0.226300
     23 C14          2.3960     0.0000    -3.5330 ca         1 5TA       0.057000
     24 N2           1.3400     0.0000     0.0000 n          1 5TA      -0.407000
     25 O3          -0.5410     0.0060     1.2240 os         1 5TA      -0.370900
     26 O11         -0.6630     0.0000    -1.0170 o          1 5TA      -0.584500
     27 O15         -0.7530     1.2380     3.8660 os         1 5TA      -0.286900
     28 C29         -0.0610     3.3350     4.7510 ca         1 5TA      -0.163000
     29 C30         -1.4310     4.4440     6.3720 ca         1 5TA      -0.137000
     30 N21         -3.3100     2.8140     8.4650 nz         1 5TA      -0.849600
     31 H1           0.4750    -0.9810     2.6710 h1         1 5TA       0.097700
     32 H2           2.1740     1.0040     1.1970 h1         1 5TA       0.085200
     33 H3           2.4860    -0.6740     1.9130 h1         1 5TA       0.085200
     34 H4           0.5810    -0.1830    -2.7780 ha         1 5TA       0.195000
     35 H5           1.3700     1.5570     3.5680 h1         1 5TA       0.061200
     36 H6           0.3190     2.0010     2.3020 h1         1 5TA       0.061200
     37 H7          -2.9140     1.6420     5.7370 ha         1 5TA       0.137000
     38 H8           3.9690    -0.1490    -0.0230 ha         1 5TA       0.126000
     39 H9           5.4090     0.0280    -1.9150 ha         1 5TA       0.139000
     40 H10          0.2460     5.3480     5.5630 ha         1 5TA       0.165000
     41 H11         -1.5100     0.3460   -10.0290 h4         1 5TA       0.006100
     42 H12         -3.8550     4.4970     7.2170 hx         1 5TA       0.117200
     43 H13         -4.1720     2.5460     7.0540 hx         1 5TA       0.117200
     44 H14          2.1670     1.4480    -8.1930 ha         1 5TA       0.163000
     45 H15          4.7430     0.0160    -3.8940 ha         1 5TA       0.161000
     46 H16          0.8550     1.3780   -10.1880 ha         1 5TA       0.161000
     47 H17          0.8920     3.3240     4.2360 ha         1 5TA       0.164000
     48 H18         -1.8070     5.1680     7.0850 ha         1 5TA       0.128000
     49 H19         -2.4560     3.0980     8.9010 hn         1 5TA       0.449133
     50 H20         -4.1320     2.8590     9.0340 hn         1 5TA       0.449133
     51 H213        -2.9430     1.8930     8.3270 hn         1 5TA       0.449133
     52 Cl1         -2.2750    -0.2490    -5.8900 cl         1 5TA      -0.352000
@<TRIPOS>BOND
     1    15    20 ar
     2    15    14 ar
     3    20    23 ar
     4    14     4 ar
     5    23     3 1
     6    23     9 ar
     7     3     2 3
     8    19    22 ar
     9    19     8 ar
    10     2     8 1
    11     4     9 ar
    12     4    24 1
    13    22    17 ar
    14     8     5 ar
    15    17    21 ar
    16     5    21 ar
    17     5    52 1
    18     7    24 1
    19     7     6 1
    20    24     1 1
    21     1    26 2
    22     1    25 1
    23     6    25 1
    24     6    10 1
    25    10    27 1
    26    27    11 1
    27    11    12 ar
    28    11    28 ar
    29    12    13 ar
    30    28    16 ar
    31    30    18 1
    32    13    18 1
    33    13    29 ar
    34    16    29 ar
    35     6    31 1
    36     7    32 1
    37     7    33 1
    38     9    34 1
    39    10    35 1
    40    10    36 1
    41    12    37 1
    42    14    38 1
    43    15    39 1
    44    16    40 1
    45    17    41 1
    46    18    42 1
    47    18    43 1
    48    19    44 1
    49    20    45 1
    50    22    46 1
    51    28    47 1
    52    29    48 1
    53    30    49 1
    54    30    50 1
    55    51    30 1
@<TRIPOS>SUBSTRUCTURE
     1 5TA         1 TEMP              0 ****  ****    0 ROOT
