@<TRIPOS>MOLECULE
molecule
   55    57     1     0     0
SMALL
bcc


@<TRIPOS>ATOM
      1 C1           0.0000     0.0000     0.0000 c3         1 5TB      -0.078700
      2 C2           1.5420     0.0000     0.0000 c3         1 5TB      -0.080400
      3 C3           1.9210     0.0000     1.5020 c3         1 5TB      -0.083900
      4 O           -1.2830    -2.0940    -3.3730 o          1 5TB      -0.606100
      5 C7          -0.7020    -1.0560    -3.6130 c          1 5TB       0.669100
      6 C5          -0.5240    -0.8670    -1.1470 c3         1 5TB      -0.060400
      7 C4           0.8500    -0.9290     2.1240 c3         1 5TB      -0.083900
      8 C           -0.4410    -0.5910     1.3510 c3         1 5TB      -0.080400
      9 N           -0.5190    -0.6670    -4.8900 n          1 5TB      -0.492800
     10 C11         -1.0140    -1.4860    -6.0050 c3         1 5TB       0.345200
     11 N1          -1.8330    -0.6410    -6.8880 nh         1 5TB      -0.609000
     12 C10         -1.0730     0.5240    -7.3570 c3         1 5TB       0.167800
     13 C9          -0.6920     1.4030    -6.1640 c3         1 5TB      -0.100400
     14 C8           0.1760     0.5920    -5.2010 c3         1 5TB       0.098000
     15 C12         -2.3340    -1.3790    -7.9630 ca         1 5TB       0.108600
     16 C17         -2.0370    -2.7310    -8.0780 ca         1 5TB      -0.167500
     17 C16         -2.5340    -3.4570    -9.1420 ca         1 5TB      -0.090500
     18 C15         -3.3270    -2.8400   -10.0920 ca         1 5TB      -0.111300
     19 C14         -3.6240    -1.4940    -9.9810 ca         1 5TB      -0.090500
     20 C13         -3.1350    -0.7630    -8.9160 ca         1 5TB      -0.167500
     21 C18         -3.8660    -3.6350   -11.2540 c3         1 5TB       0.205100
     22 N2          -5.1710    -4.2060   -10.8910 n7         1 5TB      -0.814200
     23 C19         -5.7290    -4.9900   -12.0010 c3         1 5TB       0.145100
     24 H1          -0.3690     1.0140    -0.0960 hc         1 5TB       0.047700
     25 H2           1.9200    -0.8920    -0.4850 hc         1 5TB       0.043700
     26 H3           1.9200     0.8920    -0.4850 hc         1 5TB       0.043700
     27 H4           2.9130    -0.4100     1.6460 hc         1 5TB       0.043700
     28 H5           1.8470     0.9990     1.9150 hc         1 5TB       0.043700
     29 H6          -0.6520     0.7750    -2.5280 hc         1 5TB       0.060200
     30 H7           0.8870    -0.0950    -2.5720 hc         1 5TB       0.060200
     31 H8          -0.0590    -1.8440    -1.1030 hc         1 5TB       0.060200
     32 H9          -1.5980    -0.9730    -1.0580 hc         1 5TB       0.060200
     33 H10          1.1190    -1.9680     1.9750 hc         1 5TB       0.043700
     34 H11          0.7270    -0.7100     3.1780 hc         1 5TB       0.043700
     35 H12         -1.0220     0.1380     1.9020 hc         1 5TB       0.043700
     36 H13         -1.0210    -1.4920     1.1890 hc         1 5TB       0.043700
     37 H14         -0.1750    -1.8840    -6.5620 h2         1 5TB       0.065700
     38 H15         -1.6180    -2.2970    -5.6180 h2         1 5TB       0.065700
     39 H16         -0.1740     0.1880    -7.8590 h1         1 5TB       0.043700
     40 H17         -1.6830     1.0970    -8.0450 h1         1 5TB       0.043700
     41 H18         -1.5900     1.7290    -5.6530 hc         1 5TB       0.059200
     42 H19         -0.1350     2.2640    -6.5130 hc         1 5TB       0.059200
     43 H20          0.3320     1.1560    -4.2900 h1         1 5TB       0.049700
     44 H21          1.1290     0.3740    -5.6680 h1         1 5TB       0.049700
     45 H22         -1.4170    -3.2150    -7.3340 ha         1 5TB       0.137500
     46 H23         -2.3030    -4.5120    -9.2320 ha         1 5TB       0.132500
     47 H24         -4.2470    -1.0140   -10.7260 ha         1 5TB       0.132500
     48 H25         -3.3690     0.2910    -8.8300 ha         1 5TB       0.137500
     49 H26         -3.1770    -4.4360   -11.4950 h1         1 5TB       0.036200
     50 H27         -3.9820    -2.9870   -12.1140 h1         1 5TB       0.036200
     51 H28         -5.8040    -3.4670   -10.6530 hn         1 5TB       0.355800
     52 H30         -5.0530    -5.7990   -12.2470 h1         1 5TB       0.030367
     53 H31         -5.8580    -4.3510   -12.8660 h1         1 5TB       0.030367
     54 H32         -6.6890    -5.3980   -11.7080 h1         1 5TB       0.030367
     55 C6          -0.1870    -0.2020    -2.4830 c3         1 5TB      -0.156400
@<TRIPOS>BOND
     1     3     2 1
     2     3     7 1
     3     2     1 1
     4     7     8 1
     5    13    14 1
     6    13    12 1
     7    14     9 1
     8    55     6 1
     9    55     5 1
    10     1     8 1
    11     1     6 1
    12    12    11 1
    13     9     5 1
    14     9    10 1
    15     5     4 2
    16    11    10 1
    17    11    15 1
    18    16    15 ar
    19    16    17 ar
    20    15    20 ar
    21    17    18 ar
    22    20    19 ar
    23    18    19 ar
    24    18    21 1
    25    23    22 1
    26    21    22 1
    27     1    24 1
    28     2    25 1
    29     2    26 1
    30     3    27 1
    31     3    28 1
    32    55    29 1
    33    55    30 1
    34     6    31 1
    35     6    32 1
    36     7    33 1
    37     7    34 1
    38     8    35 1
    39     8    36 1
    40    10    37 1
    41    10    38 1
    42    12    39 1
    43    12    40 1
    44    13    41 1
    45    13    42 1
    46    14    43 1
    47    14    44 1
    48    16    45 1
    49    17    46 1
    50    19    47 1
    51    20    48 1
    52    21    49 1
    53    21    50 1
    54    22    51 1
    55    23    52 1
    56    23    53 1
    57    23    54 1
@<TRIPOS>SUBSTRUCTURE
     1 5TB         1 TEMP              0 ****  ****    0 ROOT
