@<TRIPOS>MOLECULE
5TB
   55    57     1     0     0
SMALL
bcc


@<TRIPOS>ATOM
      1 C1           0.0000     0.0000     0.0000 c3         1 5TB      -0.054700
      2 C2           1.5420     0.0000     0.0000 c3         1 5TB      -0.026900
      3 C3           1.9210     0.0000     1.5020 c3         1 5TB      -0.023900
      4 O           -1.2830    -2.0940    -3.3730 o          1 5TB      -0.643100
      5 C7          -0.7020    -1.0560    -3.6130 c          1 5TB       0.595100
      6 C5          -0.5240    -0.8670    -1.1470 c3         1 5TB      -0.010400
      7 C4           0.8500    -0.9290     2.1240 c3         1 5TB      -0.023900
      8 C           -0.4410    -0.5910     1.3510 c3         1 5TB      -0.026900
      9 N           -0.5190    -0.6670    -4.8900 n          1 5TB      -0.158800
     10 C11         -1.0140    -1.4860    -6.0050 c3         1 5TB       0.204200
     11 N1          -1.8330    -0.6410    -6.8880 nh         1 5TB      -0.369000
     12 C10         -1.0730     0.5240    -7.3570 c3         1 5TB       0.139800
     13 C9          -0.6920     1.4030    -6.1640 c3         1 5TB      -0.043400
     14 C8           0.1760     0.5920    -5.2010 c3         1 5TB       0.040000
     15 C12         -2.3340    -1.3790    -7.9630 ca         1 5TB       0.023600
     16 C17         -2.0370    -2.7310    -8.0780 ca         1 5TB      -0.146500
     17 C16         -2.5340    -3.4570    -9.1420 ca         1 5TB      -0.059500
     18 C15         -3.3270    -2.8400   -10.0920 ca         1 5TB      -0.120300
     19 C14         -3.6240    -1.4940    -9.9810 ca         1 5TB      -0.059500
     20 C13         -3.1350    -0.7630    -8.9160 ca         1 5TB      -0.146500
     21 C18         -3.8660    -3.6350   -11.2540 c3         1 5TB       0.204100
     22 N2          -5.1710    -4.2060   -10.8910 n7         1 5TB      -0.582200
     23 C19         -5.7290    -4.9900   -12.0010 c3         1 5TB       0.178100
     24 H1          -0.3690     1.0140    -0.0960 hc         1 5TB       0.024700
     25 H2           1.9200    -0.8920    -0.4850 hc         1 5TB       0.016450
     26 H3           1.9200     0.8920    -0.4850 hc         1 5TB       0.016450
     27 H4           2.9130    -0.4100     1.6460 hc         1 5TB       0.014200
     28 H5           1.8470     0.9990     1.9150 hc         1 5TB       0.014200
     29 H6          -0.6520     0.7750    -2.5280 hc         1 5TB       0.031700
     30 H7           0.8870    -0.0950    -2.5720 hc         1 5TB       0.031700
     31 H8          -0.0590    -1.8440    -1.1030 hc         1 5TB       0.033700
     32 H9          -1.5980    -0.9730    -1.0580 hc         1 5TB       0.033700
     33 H10          1.1190    -1.9680     1.9750 hc         1 5TB       0.014200
     34 H11          0.7270    -0.7100     3.1780 hc         1 5TB       0.014200
     35 H12         -1.0220     0.1380     1.9020 hc         1 5TB       0.016450
     36 H13         -1.0210    -1.4920     1.1890 hc         1 5TB       0.016450
     37 H14         -0.1750    -1.8840    -6.5620 h2         1 5TB       0.041200
     38 H15         -1.6180    -2.2970    -5.6180 h2         1 5TB       0.041200
     39 H16         -0.1740     0.1880    -7.8590 h1         1 5TB       0.020200
     40 H17         -1.6830     1.0970    -8.0450 h1         1 5TB       0.020200
     41 H18         -1.5900     1.7290    -5.6530 hc         1 5TB       0.028200
     42 H19         -0.1350     2.2640    -6.5130 hc         1 5TB       0.028200
     43 H20          0.3320     1.1560    -4.2900 h1         1 5TB       0.025200
     44 H21          1.1290     0.3740    -5.6680 h1         1 5TB       0.025200
     45 H22         -1.4170    -3.2150    -7.3340 ha         1 5TB       0.118500
     46 H23         -2.3030    -4.5120    -9.2320 ha         1 5TB       0.105500
     47 H24         -4.2470    -1.0140   -10.7260 ha         1 5TB       0.105500
     48 H25         -3.3690     0.2910    -8.8300 ha         1 5TB       0.118500
     49 H26         -3.1770    -4.4360   -11.4950 h1         1 5TB       0.007700
     50 H27         -3.9820    -2.9870   -12.1140 h1         1 5TB       0.007700
     51 H28         -5.8040    -3.4670   -10.6530 hn         1 5TB       0.253800
     52 H30         -5.0530    -5.7990   -12.2470 h1         1 5TB      -0.002300
     53 H31         -5.8580    -4.3510   -12.8660 h1         1 5TB      -0.002300
     54 H32         -6.6890    -5.3980   -11.7080 h1         1 5TB      -0.002300
     55 C6          -0.1870    -0.2020    -2.4830 c3         1 5TB      -0.107400
@<TRIPOS>BOND
     1     1     2 1   
     2     1     6 1   
     3     1     8 1   
     4     1    24 1   
     5     2     3 1   
     6     2    25 1   
     7     2    26 1   
     8     3     7 1   
     9     3    27 1   
    10     3    28 1   
    11     4     5 2   
    12     5     9 1   
    13     5    55 1   
    14     6    31 1   
    15     6    32 1   
    16     6    55 1   
    17     7     8 1   
    18     7    33 1   
    19     7    34 1   
    20     8    35 1   
    21     8    36 1   
    22     9    10 1   
    23     9    14 1   
    24    10    11 1   
    25    10    37 1   
    26    10    38 1   
    27    11    12 1   
    28    11    15 1   
    29    12    13 1   
    30    12    39 1   
    31    12    40 1   
    32    13    14 1   
    33    13    41 1   
    34    13    42 1   
    35    14    43 1   
    36    14    44 1   
    37    15    16 ar  
    38    15    20 ar  
    39    16    17 ar  
    40    16    45 1   
    41    17    18 ar  
    42    17    46 1   
    43    18    19 ar  
    44    18    21 1   
    45    19    20 ar  
    46    19    47 1   
    47    20    48 1   
    48    21    22 1   
    49    21    49 1   
    50    21    50 1   
    51    22    23 1   
    52    22    51 1   
    53    23    52 1   
    54    23    53 1   
    55    23    54 1   
    56    29    55 1   
    57    30    55 1   
@<TRIPOS>SUBSTRUCTURE
     1 5TB         1 TEMP              0 ****  ****    0 ROOT
