@<TRIPOS>MOLECULE
molecule
   66    69     1     0     0
SMALL
bcc


@<TRIPOS>ATOM
      1 N            0.0000     0.0000     0.0000 nh         1 5TC      -0.570000
      2 O           -3.5100     1.1570    -7.4340 o          1 5TC      -0.602100
      3 C            1.4690     0.0000     0.0000 c3         1 5TC       0.146300
      4 C12         -3.9420     1.5670    -6.3770 c          1 5TC       0.684100
      5 N1          -3.2760     1.3120    -5.2330 ns         1 5TC      -0.551900
      6 C8          -1.4920     0.3970    -3.8670 ca         1 5TC      -0.183300
      7 C7          -1.8690    -0.6830    -3.0890 ca         1 5TC      -0.108500
      8 C6          -1.3770    -0.8170    -1.8060 ca         1 5TC      -0.158000
      9 C9          -0.6150     1.3410    -3.3660 ca         1 5TC      -0.108500
     10 C10         -0.1180     1.2130    -2.0830 ca         1 5TC      -0.158000
     11 C5          -0.5000     0.1330    -1.2970 ca         1 5TC       0.121600
     12 C4          -0.5320    -1.2050     0.6480 c3         1 5TC       0.146300
     13 C3          -0.0800    -1.2410     2.1110 c3         1 5TC      -0.098900
     14 C2           1.4500    -1.2420     2.1670 c3         1 5TC      -0.085400
     15 C1           1.9800     0.0000     1.4430 c3         1 5TC      -0.098900
     16 C13         -5.2220     2.3610    -6.3430 c3         1 5TC      -0.143400
     17 C14         -5.7700     2.5070    -7.7640 c3         1 5TC      -0.083400
     18 C15         -7.0700     3.3140    -7.7290 c3         1 5TC      -0.073700
     19 C19         -7.6830     3.3540    -9.1310 c3         1 5TC      -0.122400
     20 C18         -8.9510     4.2120    -9.1030 c3         1 5TC       0.118300
     21 N2          -8.6130     5.5700    -8.6580 nh         1 5TC      -0.560000
     22 C17         -8.0640     5.5610    -7.2960 c3         1 5TC       0.118300
     23 C16         -6.7720     4.7440    -7.2700 c3         1 5TC      -0.122400
     24 C20         -9.7170     6.4120    -8.7460 ca         1 5TC       0.115600
     25 C25        -10.9350     5.9170    -9.2050 ca         1 5TC      -0.164000
     26 C24        -12.0290     6.7480    -9.2930 ca         1 5TC      -0.063000
     27 C23        -11.9170     8.0900    -8.9200 ca         1 5TC      -0.075000
     28 C26        -13.0540     8.9560    -9.0090 cg         1 5TC       0.242800
     29 N3         -13.9470     9.6570    -9.0690 n1         1 5TC      -0.371800
     30 C22        -10.6930     8.5850    -8.4590 ca         1 5TC      -0.063000
     31 C21         -9.6050     7.7480    -8.3680 ca         1 5TC      -0.164000
     32 H1           1.8510     0.9930    -0.2050 h1         1 5TC       0.051450
     33 H2           2.0720    -0.6300    -0.6420 h1         1 5TC       0.051450
     34 H3          -3.5660     1.1940    -4.2820 hn         1 5TC       0.328500
     35 H4          -1.9440    -0.4650    -5.6620 h1         1 5TC       0.053700
     36 H5          -1.1720     0.8790    -5.8310 h1         1 5TC       0.053700
     37 H6          -2.5320    -1.0410    -3.8670 ha         1 5TC       0.147500
     38 H7          -1.8780    -1.6200    -1.2790 ha         1 5TC       0.142000
     39 H8           0.0180     1.9950    -3.9540 ha         1 5TC       0.147500
     40 H9           0.4250     1.9990    -1.5740 ha         1 5TC       0.142000
     41 H10          0.0800    -1.9860     0.2120 h1         1 5TC       0.051450
     42 H11         -1.5900    -1.3250     0.8450 h1         1 5TC       0.051450
     43 H12         -0.3400    -2.1390     2.6580 hc         1 5TC       0.047450
     44 H13         -0.6150    -0.4150     2.5640 hc         1 5TC       0.047450
     45 H14          1.6130    -2.2850     1.9260 hc         1 5TC       0.058200
     46 H15          1.5090    -0.9480     3.2080 hc         1 5TC       0.058200
     47 H16          3.0580     0.0770     1.3600 hc         1 5TC       0.047450
     48 H17          1.6990     0.9720     1.8310 hc         1 5TC       0.047450
     49 H18         -4.9000     3.3010    -5.9100 hc         1 5TC       0.058200
     50 H19         -5.9860     2.1770    -5.5980 hc         1 5TC       0.058200
     51 H20         -5.5950     1.7300    -8.4990 hc         1 5TC       0.065200
     52 H21         -5.2810     3.2830    -8.3410 hc         1 5TC       0.065200
     53 H22         -7.7690     2.8530    -7.0430 hc         1 5TC       0.037700
     54 H23         -6.7970     3.8270    -9.5370 hc         1 5TC       0.059450
     55 H24         -7.7790     2.3570    -9.5450 hc         1 5TC       0.059450
     56 H25         -9.0900     4.2410   -10.1770 h1         1 5TC       0.078200
     57 H26         -9.3770     3.3900    -8.5400 h1         1 5TC       0.078200
     58 H27         -7.7310     6.5770    -7.1200 h1         1 5TC       0.078200
     59 H28         -8.5670     4.7940    -6.7190 h1         1 5TC       0.078200
     60 H29         -6.8520     4.6740    -6.1910 hc         1 5TC       0.059450
     61 H30         -6.0530     5.4260    -7.7080 hc         1 5TC       0.059450
     62 H31        -10.9280     4.8350    -9.2570 ha         1 5TC       0.144500
     63 H32        -12.9470     6.3280    -9.6840 ha         1 5TC       0.146000
     64 H33        -11.0040     9.5660    -8.1210 ha         1 5TC       0.146000
     65 H34         -8.6580     8.0060    -7.9100 ha         1 5TC       0.144500
     66 C11         -2.0320     0.5390    -5.2660 c3         1 5TC       0.097300
@<TRIPOS>BOND
     1     2     4 2
     2    23    22 1
     3    23    18 1
     4    22    21 1
     5    17    18 1
     6    17    16 1
     7     4    16 1
     8     4     5 1
     9    18    19 1
    10    25    26 ar
    11    25    24 ar
    12    66     5 1
    13    66     6 1
    14    26    27 ar
    15     9     6 ar
    16     9    10 ar
    17    21    24 1
    18    21    20 1
    19     6     7 ar
    20    10    11 ar
    21    24    31 ar
    22    19    20 1
    23     3     1 1
    24     3    15 1
    25     7     8 ar
    26    11     1 1
    27    11     8 ar
    28    27    28 1
    29    27    30 ar
    30    13    14 1
    31    13    12 1
    32    28    29 3
    33    14    15 1
    34     1    12 1
    35    31    30 ar
    36     3    32 1
    37     3    33 1
    38     5    34 1
    39    66    35 1
    40    66    36 1
    41     7    37 1
    42     8    38 1
    43     9    39 1
    44    10    40 1
    45    12    41 1
    46    12    42 1
    47    13    43 1
    48    13    44 1
    49    14    45 1
    50    14    46 1
    51    15    47 1
    52    15    48 1
    53    16    49 1
    54    16    50 1
    55    17    51 1
    56    17    52 1
    57    18    53 1
    58    19    54 1
    59    19    55 1
    60    20    56 1
    61    20    57 1
    62    22    58 1
    63    22    59 1
    64    23    60 1
    65    23    61 1
    66    25    62 1
    67    26    63 1
    68    30    64 1
    69    31    65 1
@<TRIPOS>SUBSTRUCTURE
     1 5TC         1 TEMP              0 ****  ****    0 ROOT
