@<TRIPOS>MOLECULE
5TD
   48    50     1     0     0
SMALL
bcc


@<TRIPOS>ATOM
      1 O            0.0000     0.0000     0.0000 o          1 5TD      -0.659100
      2 C4           1.2130     0.0000     0.0000 c          1 5TD       0.606100
      3 N            1.8860     0.0000     1.1680 n          1 5TD      -0.154800
      4 C3           3.3530     0.0060     1.3130 c3         1 5TD       0.040000
      5 C2           3.6100     0.6180     2.7130 c3         1 5TD      -0.040400
      6 C1           2.4330     0.0260     3.5330 c3         1 5TD      -0.040400
      7 C            1.2800     0.0010     2.5070 c3         1 5TD       0.040000
      8 C5           1.9670    -0.0070    -1.3040 c3         1 5TD      -0.075400
      9 C6           0.9730    -0.0130    -2.4680 c3         1 5TD      -0.227400
     10 C7           1.7390    -0.0210    -3.7930 c3         1 5TD      -0.007700
     11 C11          2.5160    -1.3330    -3.9270 c3         1 5TD       0.142100
     12 C10          3.2310    -1.3620    -5.2800 c3         1 5TD      -0.436200
     13 N1           2.2430    -1.2440    -6.3600 nh         1 5TD       0.382000
     14 C9           1.5160     0.0300    -6.2790 c3         1 5TD      -0.436200
     15 C8           0.7510     0.0990    -4.9560 c3         1 5TD       0.142100
     16 C12          2.8440    -1.3970    -7.6050 ca         1 5TD      -0.163400
     17 C17          2.0740    -1.3200    -8.7620 ca         1 5TD      -0.070500
     18 C16          2.6660    -1.4710    -9.9960 ca         1 5TD      -0.072000
     19 C15          4.0410    -1.7030   -10.0860 ca         1 5TD       0.051000
     20 C18          4.6600    -1.8600   -11.3680 cg         1 5TD       0.222800
     21 N2           5.1630    -1.9990   -12.3770 n1         1 5TD      -0.366800
     22 C14          4.8110    -1.7800    -8.9220 ca         1 5TD      -0.072000
     23 C13          4.2150    -1.6230    -7.6920 ca         1 5TD      -0.070500
     24 H1           3.8140     0.4380     0.4330 h1         1 5TD       0.025950
     25 H2           3.7160    -1.0020     1.4770 h1         1 5TD       0.025950
     26 H3           3.7530     1.6880     2.6330 hc         1 5TD       0.027950
     27 H4           4.4730     0.1500     3.1730 hc         1 5TD       0.027950
     28 H5           2.7950    -0.7380     4.2100 hc         1 5TD       0.027950
     29 H6           1.9260     0.8120     4.0800 hc         1 5TD       0.027950
     30 H7           1.0910    -1.0140     2.8330 h1         1 5TD       0.025950
     31 H8           0.3620     0.5770     2.5010 h1         1 5TD       0.025950
     32 H9           2.7290     0.7620    -1.2850 hc         1 5TD       0.034200
     33 H10          2.4330    -0.9750    -1.4460 hc         1 5TD       0.034200
     34 H11          1.0840    -0.9310    -3.0330 hc         1 5TD       0.094200
     35 H12         -0.0360     0.0530    -2.0820 hc         1 5TD       0.094200
     36 H13          2.4310     0.8120    -3.8210 hc         1 5TD       0.064700
     37 H14          1.8160    -2.1600    -3.8950 hc         1 5TD       0.005450
     38 H15          3.2070    -1.4180    -3.0960 hc         1 5TD       0.005450
     39 H16          2.4880    -1.4240    -6.0670 h1         1 5TD       0.047950
     40 H17          3.8690    -2.2360    -5.3210 h1         1 5TD       0.047950
     41 H18          0.9480     0.0590    -5.3570 h1         1 5TD       0.047950
     42 H19          0.8420     0.1110    -7.1230 h1         1 5TD       0.047950
     43 H20          0.0640    -0.7400    -4.9510 hc         1 5TD       0.005450
     44 H21          0.2100     1.0350    -4.8920 hc         1 5TD       0.005450
     45 H22          1.0080    -1.1400    -8.6930 ha         1 5TD       0.140500
     46 H23          2.0630    -1.4230   -10.8950 ha         1 5TD       0.119000
     47 H24          5.8780    -1.9610    -8.9880 ha         1 5TD       0.119000
     48 H25          4.8130    -1.6790    -6.7900 ha         1 5TD       0.140500
@<TRIPOS>BOND
     1     1     2 2   
     2     2     3 1   
     3     2     8 1   
     4     3     4 1   
     5     3     7 1   
     6     4     5 1   
     7     4    24 1   
     8     4    25 1   
     9     5     6 1   
    10     5    26 1   
    11     5    27 1   
    12     6     7 1   
    13     6    28 1   
    14     6    29 1   
    15     7    30 1   
    16     7    31 1   
    17     8     9 1   
    18     8    32 1   
    19     8    33 1   
    20     9    10 1   
    21     9    34 1   
    22     9    35 1   
    23    10    11 1   
    24    10    15 1   
    25    10    36 1   
    26    11    12 1   
    27    11    37 1   
    28    11    38 1   
    29    12    13 1   
    30    12    39 1   
    31    12    40 1   
    32    13    14 1   
    33    13    16 1   
    34    14    15 1   
    35    14    41 1   
    36    14    42 1   
    37    15    43 1   
    38    15    44 1   
    39    16    17 ar  
    40    16    23 ar  
    41    17    18 ar  
    42    17    45 1   
    43    18    19 ar  
    44    18    46 1   
    45    19    20 1   
    46    19    22 ar  
    47    20    21 3   
    48    22    23 ar  
    49    22    47 1   
    50    23    48 1   
@<TRIPOS>SUBSTRUCTURE
     1 5TD         1 TEMP              0 ****  ****    0 ROOT
