@<TRIPOS>MOLECULE
molecule
   50    52     1     0     0
SMALL
bcc


@<TRIPOS>ATOM
      1 C1           0.0000     0.0000     0.0000 c3         1 5TE       0.166300
      2 C2           1.9990     0.0000     1.3700 c3         1 5TE       0.166300
      3 C3           1.5490    -1.2710     2.0930 c3         1 5TE      -0.081400
      4 N1           5.2140     2.5200    -1.7060 ns         1 5TE      -0.481100
      5 C4           0.0190    -1.3210     2.1200 c3         1 5TE      -0.083400
      6 C5           1.9690     1.0800    -0.7310 ca         1 5TE       0.120600
      7 C6           3.3400     1.2600    -0.8530 ca         1 5TE      -0.186000
      8 C7           3.8320     2.3350    -1.5810 ca         1 5TE       0.073600
      9 C8           2.9530     3.2250    -2.1840 ca         1 5TE      -0.153000
     10 C9           1.5890     3.0420    -2.0610 ca         1 5TE      -0.091000
     11 C10          1.0950     1.9700    -1.3410 ca         1 5TE      -0.199000
     12 C11          5.7260     3.0140    -2.8500 c          1 5TE       0.657100
     13 C12          7.2190     3.1170    -3.0250 c3         1 5TE      -0.158400
     14 C13          7.5320     3.7050    -4.4020 c3         1 5TE      -0.059400
     15 C14          9.0480     3.8100    -4.5790 c3         1 5TE      -0.078700
     16 C15          9.3890     4.5150    -5.9080 c3         1 5TE      -0.080400
     17 C16         10.6300     3.8050    -6.4770 c3         1 5TE      -0.083400
     18 C17         11.0000     2.6920    -5.4750 c3         1 5TE      -0.083400
     19 C18          9.6760     2.4010    -4.7260 c3         1 5TE      -0.080400
     20 O            4.9840     3.3760    -3.7400 o          1 5TE      -0.593100
     21 N            1.4680     0.0000     0.0000 nh         1 5TE      -0.595000
     22 C           -0.5110    -1.2710     0.6830 c3         1 5TE      -0.081400
     23 H1          -0.3600     0.8680     0.5390 h1         1 5TE       0.041450
     24 H2          -0.3600     0.0290    -1.0210 h1         1 5TE       0.041450
     25 H3           3.0820     0.0290     1.3360 h1         1 5TE       0.041450
     26 H4           1.6260     0.8680     1.9000 h1         1 5TE       0.041450
     27 H5           1.9270    -1.2610     3.1080 hc         1 5TE       0.050200
     28 H6           1.9290    -2.1390     1.5680 hc         1 5TE       0.050200
     29 H7           5.8170     2.3280    -0.9300 hn         1 5TE       0.322500
     30 H8          -0.3610    -0.4700     2.6730 hc         1 5TE       0.041700
     31 H9          -0.3040    -2.2400     2.5920 hc         1 5TE       0.041700
     32 H10          4.0230     0.5670    -0.3780 ha         1 5TE       0.135000
     33 H11          3.3370     4.0660    -2.7480 ha         1 5TE       0.164000
     34 H12          0.9060     3.7370    -2.5340 ha         1 5TE       0.133000
     35 H13          0.0250     1.8300    -1.2460 ha         1 5TE       0.135000
     36 H14          7.6610     2.1310    -2.9450 hc         1 5TE       0.061700
     37 H15          7.6290     3.7610    -2.2560 hc         1 5TE       0.061700
     38 H16          7.1220     3.0620    -5.1710 hc         1 5TE       0.060200
     39 H17          7.0910     4.6910    -4.4820 hc         1 5TE       0.060200
     40 H18          9.4970     4.3370    -3.7470 hc         1 5TE       0.050700
     41 H19          9.6130     5.5590    -5.7250 hc         1 5TE       0.044700
     42 H20          8.5610     4.4220    -6.5990 hc         1 5TE       0.044700
     43 H21         11.4490     4.5080    -6.5680 hc         1 5TE       0.042200
     44 H22         10.3970     3.3710    -7.4420 hc         1 5TE       0.042200
     45 H23         11.7560     3.0430    -4.7830 hc         1 5TE       0.042200
     46 H24         11.3380     1.8080    -6.0010 hc         1 5TE       0.042200
     47 H25          9.8740     1.9690    -3.7520 hc         1 5TE       0.044700
     48 H26          9.0360     1.7570    -5.3170 hc         1 5TE       0.044700
     49 H27         -1.5940    -1.2620     0.6990 hc         1 5TE       0.050200
     50 H28         -0.1590    -2.1390     0.1390 hc         1 5TE       0.050200
@<TRIPOS>BOND
     1    19    18 1   
     2    19    15 1   
     3    18    17 1   
     4     9    10 ar  
     5     9     8 ar  
     6    10    11 ar  
     7    15    14 1   
     8    15    16 1   
     9    14    13 1   
    10    17    16 1   
    11     4     8 1   
    12     4    12 1   
    13     8     7 ar  
    14    11     6 ar  
    15    13    12 1   
    16    12    20 2   
    17     7     6 ar  
    18     6    21 1   
    19     1    21 1   
    20     1    22 1   
    21    21     2 1   
    22     2     3 1   
    23    22     5 1   
    24     5     3 1   
    25     1    23 1   
    26     1    24 1   
    27     2    25 1   
    28     2    26 1   
    29     3    27 1   
    30     3    28 1   
    31     4    29 1   
    32     5    30 1   
    33     5    31 1   
    34     7    32 1   
    35     9    33 1   
    36    10    34 1   
    37    11    35 1   
    38    13    36 1   
    39    13    37 1   
    40    14    38 1   
    41    14    39 1   
    42    15    40 1   
    43    16    41 1   
    44    16    42 1   
    45    17    43 1   
    46    17    44 1   
    47    18    45 1   
    48    18    46 1   
    49    19    47 1   
    50    19    48 1   
    51    22    49 1   
    52    22    50 1   
@<TRIPOS>SUBSTRUCTURE
     1 5TE         1 TEMP              0 ****  ****    0 ROOT
