@<TRIPOS>MOLECULE
molecule
   43    46     1     0     0
SMALL
bcc


@<TRIPOS>ATOM
      1 C1           0.0000     0.0000     0.0000 c3         1 5TF      -0.109100
      2 C2           1.5290     0.0000     0.0000 c3         1 5TF       0.236500
      3 C3           2.0410     0.0000     1.4420 c3         1 5TF      -0.109100
      4 N4           2.0180    -1.1960    -0.6910 nu         1 5TF      -0.904900
      5 C5           3.2790    -1.1930    -1.2780 cc         1 5TF       0.679200
      6 C6           3.7400    -2.3470    -1.9410 cc         1 5TF      -0.289300
      7 C7           4.9710    -2.3570    -2.5180 cd         1 5TF       0.003000
      8 C8           5.7720    -1.2000    -2.4430 cd         1 5TF      -0.158300
      9 N9           6.9800    -0.8940    -2.8870 nc         1 5TF      -0.065000
     10 N10          7.2610     0.3170    -2.5490 nc         1 5TF      -0.379700
     11 C11          6.2650     0.8430    -1.8810 cd         1 5TF       0.361800
     12 C12          6.2110     2.2380    -1.3150 c3         1 5TF       0.020200
     13 C13          7.3510     2.4250    -0.3110 c3         1 5TF      -0.088100
     14 C14          6.3560     3.2390    -2.4320 cc         1 5TF      -0.162400
     15 C15          7.3970     3.3570    -3.2700 cd         1 5TF      -0.057100
     16 N16          7.1720     4.3780    -4.1540 na         1 5TF      -0.279100
     17 C17          5.9510     4.9570    -3.9020 ca         1 5TF       0.465800
     18 N18          5.2880     5.9590    -4.4650 nb         1 5TF      -0.712000
     19 C19          4.1030     6.3330    -4.0310 ca         1 5TF       0.444200
     20 C20          3.4880     5.7000    -2.9620 ca         1 5TF      -0.287300
     21 C21          4.1300     4.6490    -2.3340 ca         1 5TF      -0.050000
     22 C22          5.3840     4.2640    -2.8150 ca         1 5TF      -0.208100
     23 N23          5.2930    -0.0910    -1.7910 na         1 5TF       0.119300
     24 N24          4.0220    -0.1130    -1.2130 nd         1 5TF      -0.582800
     25 H11C        -0.3610    -0.0310    -1.0210 hc         1 5TF       0.044033
     26 H12C        -0.3610    -0.8690     0.5370 hc         1 5TF       0.044033
     27 H13C        -0.3610     0.9000     0.4840 hc         1 5TF       0.044033
     28 H2           1.8900     0.8850    -0.5110 h1         1 5TF       0.078700
     29 H31C         3.1190     0.1010     1.4430 hc         1 5TF       0.044033
     30 H32C         1.7650    -0.9310     1.9230 hc         1 5TF       0.044033
     31 H33C         1.6000     0.8300     1.9820 hc         1 5TF       0.044033
     32 H4           1.4390    -2.0090    -0.7550 hn         1 5TF       0.451800
     33 H6           3.1120    -3.2280    -1.9920 ha         1 5TF       0.147000
     34 H7           5.3310    -3.2410    -3.0290 ha         1 5TF       0.166000
     35 H12          5.2610     2.3890    -0.8150 hc         1 5TF       0.077700
     36 H131         7.0280     2.0920     0.6680 hc         1 5TF       0.046033
     37 H132         8.2080     1.8420    -0.6260 hc         1 5TF       0.046033
     38 H133         7.6230     3.4720    -0.2650 hc         1 5TF       0.046033
     39 H15          8.2850     2.7370    -3.2500 h4         1 5TF       0.191000
     40 H16          7.8030     4.6620    -4.8770 hn         1 5TF       0.306700
     41 H19          3.5960     7.1570    -4.5190 h4         1 5TF       0.022100
     42 H20          2.5130     6.0260    -2.6220 ha         1 5TF       0.135000
     43 H21          3.6730     4.1360    -1.4970 ha         1 5TF       0.136000
@<TRIPOS>BOND
     1     1     2 1   
     2     2     3 1   
     3     2     4 1   
     4     4     5 1   
     5     5     6 1   
     6     5    24 2   
     7     6     7 2   
     8     7     8 1   
     9     8     9 2   
    10     8    23 1   
    11     9    10 1   
    12    10    11 2   
    13    11    12 1   
    14    11    23 1   
    15    12    13 1   
    16    12    14 1   
    17    14    15 2   
    18    14    22 1   
    19    15    16 1   
    20    16    17 1   
    21    17    18 ar  
    22    17    22 ar  
    23    18    19 ar  
    24    19    20 ar  
    25    20    21 ar  
    26    21    22 ar  
    27    23    24 1   
    28     1    25 1   
    29     1    26 1   
    30     1    27 1   
    31     2    28 1   
    32     3    29 1   
    33     3    30 1   
    34     3    31 1   
    35     4    32 1   
    36     6    33 1   
    37     7    34 1   
    38    12    35 1   
    39    13    36 1   
    40    13    37 1   
    41    13    38 1   
    42    15    39 1   
    43    16    40 1   
    44    19    41 1   
    45    20    42 1   
    46    21    43 1   
@<TRIPOS>SUBSTRUCTURE
     1 5TF         1 TEMP              0 ****  ****    0 ROOT
