@<TRIPOS>MOLECULE
5TF
   43    46     1     0     0
SMALL
bcc


@<TRIPOS>ATOM
      1 C1           0.0000     0.0000     0.0000 c3         1 5TF      -0.011100
      2 C2           1.5290     0.0000     0.0000 c3         1 5TF       0.126500
      3 C3           2.0410     0.0000     1.4420 c3         1 5TF      -0.011100
      4 N4           2.0180    -1.1960    -0.6910 nu         1 5TF      -0.478900
      5 C5           3.2790    -1.1930    -1.2780 cc         1 5TF       0.575200
      6 C6           3.7400    -2.3470    -1.9410 cc         1 5TF      -0.306300
      7 C7           4.9710    -2.3570    -2.5180 cd         1 5TF       0.075000
      8 C8           5.7720    -1.2000    -2.4430 cd         1 5TF      -0.359300
      9 N9           6.9800    -0.8940    -2.8870 nc         1 5TF      -0.044000
     10 N10          7.2610     0.3170    -2.5490 nc         1 5TF      -0.347700
     11 C11          6.2650     0.8430    -1.8810 cd         1 5TF       0.142800
     12 C12          6.2110     2.2380    -1.3150 c3         1 5TF       0.073200
     13 C13          7.3510     2.4250    -0.3110 c3         1 5TF      -0.001100
     14 C14          6.3560     3.2390    -2.4320 cc         1 5TF      -0.156400
     15 C15          7.3970     3.3570    -3.2700 cd         1 5TF      -0.233100
     16 N16          7.1720     4.3780    -4.1540 na         1 5TF       0.259900
     17 C17          5.9510     4.9570    -3.9020 ca         1 5TF       0.228800
     18 N18          5.2880     5.9590    -4.4650 nb         1 5TF      -0.578000
     19 C19          4.1030     6.3330    -4.0310 ca         1 5TF       0.412200
     20 C20          3.4880     5.7000    -2.9620 ca         1 5TF      -0.257300
     21 C21          4.1300     4.6490    -2.3340 ca         1 5TF      -0.017000
     22 C22          5.3840     4.2640    -2.8150 ca         1 5TF      -0.208100
     23 N23          5.2930    -0.0910    -1.7910 na         1 5TF       0.627300
     24 N24          4.0220    -0.1130    -1.2130 nd         1 5TF      -0.734800
     25 H11C        -0.3610    -0.0310    -1.0210 hc         1 5TF       0.011867
     26 H12C        -0.3610    -0.8690     0.5370 hc         1 5TF       0.011867
     27 H13C        -0.3610     0.9000     0.4840 hc         1 5TF       0.011867
     28 H2           1.8900     0.8850    -0.5110 h1         1 5TF       0.057700
     29 H31C         3.1190     0.1010     1.4430 hc         1 5TF       0.011867
     30 H32C         1.7650    -0.9310     1.9230 hc         1 5TF       0.011867
     31 H33C         1.6000     0.8300     1.9820 hc         1 5TF       0.011867
     32 H4           1.4390    -2.0090    -0.7550 hn         1 5TF       0.297800
     33 H6           3.1120    -3.2280    -1.9920 ha         1 5TF       0.126000
     34 H7           5.3310    -3.2410    -3.0290 ha         1 5TF       0.123000
     35 H12          5.2610     2.3890    -0.8150 hc         1 5TF       0.038700
     36 H131         7.0280     2.0920     0.6680 hc         1 5TF       0.012033
     37 H132         8.2080     1.8420    -0.6260 hc         1 5TF       0.012033
     38 H133         7.6230     3.4720    -0.2650 hc         1 5TF       0.012033
     39 H15          8.2850     2.7370    -3.2500 h4         1 5TF       0.164000
     40 H16          7.8030     4.6620    -4.8770 hn         1 5TF       0.119700
     41 H19          3.5960     7.1570    -4.5190 h4         1 5TF      -0.024900
     42 H20          2.5130     6.0260    -2.6220 ha         1 5TF       0.111000
     43 H21          3.6730     4.1360    -1.4970 ha         1 5TF       0.105000
@<TRIPOS>BOND
     1     1     2 1   
     2     1    25 1   
     3     1    26 1   
     4     1    27 1   
     5     2     3 1   
     6     2     4 1   
     7     2    28 1   
     8     3    29 1   
     9     3    30 1   
    10     3    31 1   
    11     4     5 1   
    12     4    32 1   
    13     5     6 1   
    14     5    24 2   
    15     6     7 2   
    16     6    33 1   
    17     7     8 1   
    18     7    34 1   
    19     8     9 2   
    20     8    23 1   
    21     9    10 1   
    22    10    11 2   
    23    11    12 1   
    24    11    23 1   
    25    12    13 1   
    26    12    14 1   
    27    12    35 1   
    28    13    36 1   
    29    13    37 1   
    30    13    38 1   
    31    14    15 2   
    32    14    22 1   
    33    15    16 1   
    34    15    39 1   
    35    16    17 1   
    36    16    40 1   
    37    17    18 ar  
    38    17    22 ar  
    39    18    19 ar  
    40    19    20 ar  
    41    19    41 1   
    42    20    21 ar  
    43    20    42 1   
    44    21    22 ar  
    45    21    43 1   
    46    23    24 1   
@<TRIPOS>SUBSTRUCTURE
     1 5TF         1 TEMP              0 ****  ****    0 ROOT
