@<TRIPOS>MOLECULE
5TG
   70    72     1     0     0
SMALL
bcc


@<TRIPOS>ATOM
      1 N            0.0000     0.0000     0.0000 n          1 5TG      -0.169800
      2 C            1.4700     0.0000     0.0000 c3         1 5TG       0.054500
      3 O2          -0.2860    -0.0430    -2.1990 o          1 5TG      -0.647100
      4 C4          -0.7860    -0.0210    -1.0940 c          1 5TG       0.602100
      5 C3          -0.4730     0.0210     1.3970 c3         1 5TG       0.054500
      6 C2           0.6970    -0.5750     2.2200 c3         1 5TG      -0.033900
      7 C1           1.9280     0.0000     1.4740 c3         1 5TG      -0.033900
      8 C5          -2.2860    -0.0180    -0.9460 c3         1 5TG      -0.106400
      9 C6          -2.9350    -0.0440    -2.3310 c3         1 5TG      -0.010400
     10 C7          -4.4580    -0.0410    -2.1800 c3         1 5TG      -0.058700
     11 C11         -5.1090    -0.1930    -3.5570 c3         1 5TG      -0.027400
     12 C10         -6.6310    -0.1280    -3.4070 c3         1 5TG       0.136300
     13 N1          -7.0090     1.1570    -2.8060 nh         1 5TG      -0.355000
     14 C9          -6.4340     1.3050    -1.4630 c3         1 5TG       0.136300
     15 C8          -4.9070     1.2820    -1.5540 c3         1 5TG      -0.027400
     16 C12         -8.3980     1.3040    -2.7750 ca         1 5TG       0.030600
     17 C17         -9.2170     0.2980    -3.2710 ca         1 5TG      -0.155500
     18 C16        -10.5890     0.4470    -3.2380 ca         1 5TG      -0.055500
     19 C15        -11.1490     1.5970    -2.7130 ca         1 5TG      -0.161300
     20 C14        -10.3370     2.6020    -2.2180 ca         1 5TG      -0.055500
     21 C13         -8.9640     2.4560    -2.2420 ca         1 5TG      -0.155500
     22 C18        -12.6480     1.7570    -2.6800 c3         1 5TG       0.129300
     23 H1           1.8380    -0.8890    -0.4990 h1         1 5TG       0.020200
     24 H2           1.8380     0.8890    -0.4990 h1         1 5TG       0.020200
     25 H3          -0.6730     1.0380     1.7110 h1         1 5TG       0.020200
     26 H4          -1.3580    -0.5950     1.5040 h1         1 5TG       0.020200
     27 H5           0.6890    -1.6570     2.1740 hc         1 5TG       0.024700
     28 H6           0.6670    -0.2220     3.2440 hc         1 5TG       0.024700
     29 H7           2.7890    -0.6440     1.6060 hc         1 5TG       0.024700
     30 H8           2.1400     1.0090     1.8070 hc         1 5TG       0.024700
     31 H9          -2.5950    -0.8910    -0.3850 hc         1 5TG       0.031200
     32 H10         -2.5940     0.8770    -0.4190 hc         1 5TG       0.031200
     33 H11         -2.6270    -0.9400    -2.8570 hc         1 5TG       0.033700
     34 H12         -2.6260     0.8290    -2.8920 hc         1 5TG       0.033700
     35 H13         -4.7660    -0.8620    -1.5440 hc         1 5TG       0.024700
     36 H14         -4.7760     0.6090    -4.2040 hc         1 5TG       0.024950
     37 H15         -4.8290    -1.1490    -3.9840 hc         1 5TG       0.024950
     38 H16         -6.9640    -0.9360    -2.7670 h1         1 5TG       0.017950
     39 H17         -7.0930    -0.2190    -4.3820 h1         1 5TG       0.017950
     40 H18         -6.7690     0.4860    -0.8370 h1         1 5TG       0.017950
     41 H19         -6.7550     2.2470    -1.0360 h1         1 5TG       0.017950
     42 H20         -4.5710     2.1060    -2.1730 hc         1 5TG       0.024950
     43 H21         -4.4850     1.3730    -0.5610 hc         1 5TG       0.024950
     44 H22         -8.7790    -0.6040    -3.6820 ha         1 5TG       0.119500
     45 H23        -11.2280    -0.3380    -3.6250 ha         1 5TG       0.113000
     46 H24        -10.7790     3.5010    -1.8050 ha         1 5TG       0.113000
     47 H25         -8.3290     3.2430    -1.8550 ha         1 5TG       0.119500
     48 H26        -13.0870     1.2180    -3.5110 h1         1 5TG       0.035200
     49 H27        -12.9010     2.8080    -2.7570 h1         1 5TG       0.035200
     50 N2         -13.1680     1.2210    -1.4200 n          1 5TG      -0.140800
     51 C20        -13.2850     2.0230    -0.3430 c          1 5TG       0.704100
     52 C19        -13.5620    -0.1870    -1.3300 c3         1 5TG       0.084300
     53 O3         -13.7640     1.5310     0.8140 os         1 5TG      -0.414900
     54 C22        -13.8620     2.4520     1.9320 c3         1 5TG       0.193800
     55 O1         -12.9580     3.1910    -0.4180 o          1 5TG      -0.668000
     56 C21        -14.7930     3.6070     1.5610 c3         1 5TG      -0.029433
     57 C23        -14.4220     1.7160     3.1520 c3         1 5TG      -0.029433
     58 C24        -12.4730     3.0030     2.2620 c3         1 5TG      -0.029433
     59 H28        -13.5180    -0.6390    -2.3140 h1         1 5TG       0.009700
     60 H29        -12.8870    -0.7100    -0.6630 h1         1 5TG       0.009700
     61 H30        -14.5730    -0.2550    -0.9460 h1         1 5TG       0.009700
     62 H31        -15.1470     4.0900     2.4630 hc         1 5TG       0.018922
     63 H32        -14.2550     4.3250     0.9540 hc         1 5TG       0.018922
     64 H33        -15.6380     3.2240     1.0020 hc         1 5TG       0.018922
     65 H34        -15.4060     1.3270     2.9180 hc         1 5TG       0.018922
     66 H35        -13.7630     0.8980     3.4140 hc         1 5TG       0.018922
     67 H36        -14.4940     2.4030     3.9860 hc         1 5TG       0.018922
     68 H37        -11.7340     2.2200     2.1370 hc         1 5TG       0.018922
     69 H38        -12.4570     3.3530     3.2880 hc         1 5TG       0.018922
     70 H39        -12.2430     3.8260     1.5970 hc         1 5TG       0.018922
@<TRIPOS>BOND
     1     1     2 1   
     2     1     4 1   
     3     1     5 1   
     4     2     7 1   
     5     2    23 1   
     6     2    24 1   
     7     3     4 2   
     8     4     8 1   
     9     5     6 1   
    10     5    25 1   
    11     5    26 1   
    12     6     7 1   
    13     6    27 1   
    14     6    28 1   
    15     7    29 1   
    16     7    30 1   
    17     8     9 1   
    18     8    31 1   
    19     8    32 1   
    20     9    10 1   
    21     9    33 1   
    22     9    34 1   
    23    10    11 1   
    24    10    15 1   
    25    10    35 1   
    26    11    12 1   
    27    11    36 1   
    28    11    37 1   
    29    12    13 1   
    30    12    38 1   
    31    12    39 1   
    32    13    14 1   
    33    13    16 1   
    34    14    15 1   
    35    14    40 1   
    36    14    41 1   
    37    15    42 1   
    38    15    43 1   
    39    16    17 ar  
    40    16    21 ar  
    41    17    18 ar  
    42    17    44 1   
    43    18    19 ar  
    44    18    45 1   
    45    19    20 ar  
    46    19    22 1   
    47    20    21 ar  
    48    20    46 1   
    49    21    47 1   
    50    22    48 1   
    51    22    49 1   
    52    22    50 1   
    53    50    51 1   
    54    50    52 1   
    55    51    53 1   
    56    51    55 2   
    57    52    59 1   
    58    52    60 1   
    59    52    61 1   
    60    53    54 1   
    61    54    56 1   
    62    54    57 1   
    63    54    58 1   
    64    56    62 1   
    65    56    63 1   
    66    56    64 1   
    67    57    65 1   
    68    57    66 1   
    69    57    67 1   
    70    58    68 1   
    71    58    69 1   
    72    58    70 1   
@<TRIPOS>SUBSTRUCTURE
     1 5TG         1 TEMP              0 ****  ****    0 ROOT
