@<TRIPOS>MOLECULE
molecule
   29    29     1     0     0
SMALL
bcc


@<TRIPOS>ATOM
      1 C1           0.0000     0.0000     0.0000 c3         1 5TH       0.304900
      2 C2           1.5310     0.0000     0.0000 c3         1 5TH       0.179100
      3 O2           2.0080    -1.1670    -0.6720 os         1 5TH      -0.581500
      4 C3           2.0340     0.0000     1.4470 c3         1 5TH       0.153100
      5 C4           1.4530     1.2150     2.1770 c3         1 5TH       0.135100
      6 C5          -0.0750     1.1670     2.0940 c3         1 5TH       0.130100
      7 C6          -0.6620     2.4080     2.7700 c3         1 5TH       0.132400
      8 O3           3.4610     0.0720     1.4560 oh         1 5TH      -0.578800
      9 O4           1.8570     1.1860     3.5480 os         1 5TH      -0.437600
     10 O5          -0.4750     1.1380     0.7220 os         1 5TH      -0.415600
     11 O11         -2.0870     2.3080     2.7960 oh         1 5TH      -0.599800
     12 S1           2.3360    -0.9460    -2.1410 s6         1 5TH       1.554300
     13 S2           2.1110     2.5610     4.1480 ss         1 5TH       0.280600
     14 O7           3.6490    -0.1780    -2.2000 o          1 5TH      -0.732200
     15 O8           2.5960    -2.2290    -2.6930 o          1 5TH      -0.732200
     16 O9           1.3370    -0.0700    -2.6470 o          1 5TH      -0.732200
     17 O07          2.5180     2.2400     5.5790 oh         1 5TH      -0.611800
     18 H1          -0.3590     0.0470    -1.0210 h2         1 5TH       0.120700
     19 H3           1.8910     0.8870    -0.5060 h1         1 5TH       0.100700
     20 H4           1.7090    -0.9070     1.9410 h1         1 5TH       0.069700
     21 H5           1.8110     2.1230     1.7080 h1         1 5TH       0.070700
     22 H6          -0.4340     0.2740     2.5920 h1         1 5TH       0.077700
     23 H7          -0.2860     2.4780     3.7840 h1         1 5TH       0.037200
     24 H8          -0.3720     3.2920     2.2160 h1         1 5TH       0.037200
     25 H9           3.8100    -0.6660     1.9270 ho         1 5TH       0.407000
     26 H10         -2.4440     3.0330     3.2820 ho         1 5TH       0.391000
     27 H11          2.9090     3.0020     5.9730 ho         1 5TH       0.453000
     28 O1          -0.4770    -1.1930     0.6250 oh         1 5TH      -0.620800
     29 HO1         -1.2150    -1.5270     0.1430 ho         1 5TH       0.407000
@<TRIPOS>BOND
     1    16    12 1   
     2    15    12 1   
     3     8     4 1   
     4    12    14 1   
     5    12     3 1   
     6     2     4 1   
     7     2     1 1   
     8     2     3 1   
     9     5     9 1   
    10     5     4 1   
    11     5     6 1   
    12     7    11 1   
    13     7     6 1   
    14     9    13 1   
    15     1    10 1   
    16     6    10 1   
    17    13    17 1   
    18     1    18 1   
    19     2    19 1   
    20     4    20 1   
    21     5    21 1   
    22     6    22 1   
    23     7    23 1   
    24     7    24 1   
    25     8    25 1   
    26    11    26 1   
    27    17    27 1   
    28     1    28 1   
    29    28    29 1   
@<TRIPOS>SUBSTRUCTURE
     1 5TH         1 TEMP              0 ****  ****    0 ROOT
