@<TRIPOS>MOLECULE
molecule
   29    29     1     0     0
SMALL
bcc


@<TRIPOS>ATOM
      1 C1           0.0000     0.0000     0.0000 c3         1 5TJ       0.303900
      2 C2           1.5310     0.0000     0.0000 c3         1 5TJ       0.097100
      3 O2           2.0080    -1.1680    -0.6710 oh         1 5TJ      -0.506800
      4 C3           2.0340     0.0000     1.4480 c3         1 5TJ       0.196100
      5 O3           3.4610     0.0740     1.4580 os         1 5TJ      -0.591500
      6 C4           1.4530     1.2150     2.1770 c3         1 5TJ       0.156100
      7 O4           1.8570     1.1860     3.5480 os         1 5TJ      -0.412600
      8 C5          -0.0750     1.1690     2.0930 c3         1 5TJ       0.130100
      9 O6          -0.4740     1.1390     0.7220 os         1 5TJ      -0.431600
     10 C51         -0.6610     2.4100     2.7690 c3         1 5TJ       0.131400
     11 O52         -2.0860     2.3100     2.7940 oh         1 5TJ      -0.603800
     12 S3           4.1500    -1.2800     1.5590 s6         1 5TJ       1.558300
     13 S4           2.1120     2.5620     4.1480 ss         1 5TJ       0.270600
     14 O33          3.3720    -2.0600     2.4560 o          1 5TJ      -0.728867
     15 O32          4.0330    -1.9480     0.1960 o          1 5TJ      -0.728867
     16 O31          5.5310    -1.0140     1.7580 o          1 5TJ      -0.728867
     17 O41          2.5170     2.2420     5.5800 oh         1 5TJ      -0.589800
     18 O1          -0.4770    -1.1920     0.6250 oh         1 5TJ      -0.591800
     19 H1          -0.3590     0.0470    -1.0210 h2         1 5TJ       0.053700
     20 H2           1.8910     0.8870    -0.5070 h1         1 5TJ       0.043700
     21 H3           2.0320    -1.0100    -1.6000 ho         1 5TJ       0.384000
     22 H4           1.7090    -0.9070     1.9420 h1         1 5TJ       0.135700
     23 H5           1.8120     2.1230     1.7080 h1         1 5TJ       0.054700
     24 H6          -0.4350     0.2770     2.5920 h1         1 5TJ       0.090700
     25 H7          -0.3710     3.2940     2.2150 h1         1 5TJ       0.038700
     26 H8          -0.2860     2.4800     3.7830 h1         1 5TJ       0.038700
     27 H9          -2.4480     3.0750     3.2120 ho         1 5TJ       0.390000
     28 H10          3.0390     2.9470     5.9240 ho         1 5TJ       0.441000
     29 H11         -1.1640    -1.5690     0.1010 ho         1 5TJ       0.400000
@<TRIPOS>BOND
     1    14    12 1
     2    16    12 1
     3     1     2 1
     4     1     9 1
     5    11    10 1
     6    12     5 1
     7    12    15 1
     8     2     3 1
     9     2     4 1
    10     5     4 1
    11     9     8 1
    12    10     8 1
    13     4     6 1
    14     8     6 1
    15     6     7 1
    16     7    13 1
    17    13    17 1
    18     1    18 1
    19     1    19 1
    20     2    20 1
    21     3    21 1
    22     4    22 1
    23     6    23 1
    24     8    24 1
    25    10    25 1
    26    10    26 1
    27    11    27 1
    28    17    28 1
    29    18    29 1
@<TRIPOS>SUBSTRUCTURE
     1 5TJ         1 TEMP              0 ****  ****    0 ROOT
