@<TRIPOS>MOLECULE
molecule
   26    26     1     0     0
SMALL
bcc


@<TRIPOS>ATOM
      1 SA           0.0000     0.0000     0.0000 ss         1 5TK       0.301600
      2 C1          -3.9100    -0.5430     3.5850 c3         1 5TK       0.320900
      3 C2          -3.7100    -1.4180     2.3460 c3         1 5TK       0.104100
      4 O2S          1.5220     0.0000     0.0000 oh         1 5TK      -0.617800
      5 C3          -2.2240    -1.4380     1.9770 c3         1 5TK       0.122100
      6 C4          -1.7440    -0.0000     1.7560 c3         1 5TK       0.153100
      7 C5          -2.0200     0.8210     3.0190 c3         1 5TK       0.153100
      8 C6          -1.5990     2.2730     2.7860 c3         1 5TK       0.149400
      9 O2          -4.1500    -2.7490     2.6250 oh         1 5TK      -0.588800
     10 O3          -2.0370    -2.1930     0.7780 oh         1 5TK      -0.600800
     11 O4          -0.3420     0.0000     1.4830 os         1 5TK      -0.438600
     12 O5          -3.4160     0.7720     3.3230 os         1 5TK      -0.408600
     13 O1          -3.1970    -1.1090     4.6880 oh         1 5TK      -0.608800
     14 H1          -4.9660    -0.4890     3.8210 h2         1 5TK       0.072700
     15 H2          -4.2800    -1.0090     1.5200 h1         1 5TK       0.058700
     16 H3           1.8360     0.0270    -0.8890 ho         1 5TK       0.468000
     17 H4          -1.6580    -1.8870     2.7850 h1         1 5TK       0.082700
     18 H5          -2.2800     0.4330     0.9210 h1         1 5TK       0.064700
     19 H6          -1.4580     0.4060     3.8470 h1         1 5TK       0.087700
     20 H7          -0.5640     2.3030     2.4680 h1         1 5TK       0.038700
     21 H8          -2.2250     2.7120     2.0170 h1         1 5TK       0.038700
     22 H9          -4.9530    -2.9180     2.1600 ho         1 5TK       0.407000
     23 H10         -1.6480    -3.0260     0.9880 ho         1 5TK       0.419000
     24 H11         -1.4070     3.8840     3.8800 ho         1 5TK       0.404000
     25 H12         -3.7510    -1.1130     5.4510 ho         1 5TK       0.416000
     26 O6          -1.7470     3.0130     3.9990 oh         1 5TK      -0.600800
@<TRIPOS>BOND
     1     2     3 1
     2     2    12 1
     3     3     9 1
     4     3     5 1
     5    26     8 1
     6    10     5 1
     7    12     7 1
     8     8     7 1
     9     5     6 1
    10     7     6 1
    11     6    11 1
    12    11     1 1
    13     1     4 1
    14     2    13 1
    15     2    14 1
    16     3    15 1
    17     4    16 1
    18     5    17 1
    19     6    18 1
    20     7    19 1
    21     8    20 1
    22     8    21 1
    23     9    22 1
    24    10    23 1
    25    26    24 1
    26    13    25 1
@<TRIPOS>SUBSTRUCTURE
     1 5TK         1 TEMP              0 ****  ****    0 ROOT
