@<TRIPOS>MOLECULE
5TL
   45    47     1     0     0
SMALL
bcc


@<TRIPOS>ATOM
      1 O4           0.0000     0.0000     0.0000 o          1 5TL      -0.484300
      2 S            1.4210     0.0000     0.0000 sy         1 5TL       0.942200
      3 O2           2.1980     0.0000     1.1900 o          1 5TL      -0.484300
      4 N1           1.8890    -1.3330    -0.8630 nz         1 5TL      -0.130500
      5 CAU          1.9190     1.4180    -0.9190 ca         1 5TL      -0.232500
      6 CAN          1.0590     1.9730    -1.8500 ca         1 5TL       0.028000
      7 CAM          1.4430     3.0830    -2.5730 ca         1 5TL      -0.110500
      8 CAT          3.1670     1.9760    -0.7040 ca         1 5TL       0.028000
      9 CAS          3.5620     3.0870    -1.4210 ca         1 5TL      -0.110500
     10 CAR          2.9930     4.8520    -4.5330 ca         1 5TL       0.152600
     11 CAQ          3.3860     5.9850    -5.2590 ca         1 5TL      -0.295600
     12 CAV          3.2500     6.0070    -6.7280 c          1 5TL       0.370700
     13 OAO          2.7110     5.0810    -7.3020 o          1 5TL      -0.488100
     14 NAW          3.7230     7.0540    -7.4320 nz         1 5TL       0.205600
     15 CAP          3.9060     7.0930    -4.5880 ca         1 5TL      -0.057000
     16 CAL          2.7000     3.6470    -2.3640 cp         1 5TL       0.061000
     17 CAJ          3.1200     4.8410    -3.1370 cp         1 5TL      -0.143000
     18 CAI          3.6380     5.9490    -2.4800 ca         1 5TL       0.036000
     19 CAH          4.0330     7.0720    -3.2050 cp         1 5TL      -0.009000
     20 CAG          4.5860     8.2520    -2.4950 cp         1 5TL      -0.085000
     21 CAD          4.9780     9.3800    -3.2140 ca         1 5TL      -0.088000
     22 CAC          5.4920    10.4760    -2.5490 ca         1 5TL      -0.079000
     23 CAF          4.7110     8.2380    -1.1070 ca         1 5TL      -0.088000
     24 CAE          5.2260     9.3390    -0.4530 ca         1 5TL      -0.079000
     25 CAB          5.6190    10.4540    -1.1710 ca         1 5TL      -0.054000
     26 H1           1.6280    -2.1610    -0.3650 hn         1 5TL       0.315467
     27 H2           2.8820    -1.3190    -0.9880 hn         1 5TL       0.315467
     28 H3           0.0810     1.5340    -2.0120 ha         1 5TL       0.133500
     29 H4           0.7690     3.5150    -3.3030 ha         1 5TL       0.136000
     30 H5           3.8350     1.5400     0.0290 ha         1 5TL       0.133500
     31 H6           4.5390     3.5220    -1.2530 ha         1 5TL       0.136000
     32 H7           1.9090     3.8730    -6.0080 hn         1 5TL       0.298300
     33 H8           2.6900     2.8260    -4.8680 hn         1 5TL       0.298300
     34 H9           4.6970     7.1760    -7.2360 hn         1 5TL       0.248800
     35 H10          3.5990     6.8810    -8.4100 hn         1 5TL       0.248800
     36 H11          4.2120     7.9700    -5.1470 ha         1 5TL       0.101000
     37 H12          3.7380     5.9390    -1.4010 ha         1 5TL       0.135000
     38 H13          4.8160     9.4230    -4.2840 ha         1 5TL       0.094500
     39 H14          5.7930    11.3540    -3.1060 ha         1 5TL       0.118500
     40 H15          4.3410     7.3940    -0.5390 ha         1 5TL       0.094500
     41 H16          5.3280     9.3270     0.6260 ha         1 5TL       0.118500
     42 H17          6.0210    11.3170    -0.6550 ha         1 5TL       0.122000
     43 H131         1.4450    -1.3230    -1.7600 hn         1 5TL       0.315467
     44 HAW3         3.2670     7.8930    -7.1320 hn         1 5TL       0.248800
     45 NAY          2.4760     3.7480    -5.1930 nv         1 5TL      -0.420200
@<TRIPOS>BOND
     1     1     2 2   
     2     2     3 2   
     3     2     4 1   
     4     2     5 1   
     5     4    26 1   
     6     4    27 1   
     7     4    43 1   
     8     5     6 ar  
     9     5     8 ar  
    10     6     7 ar  
    11     6    28 1   
    12     7    16 ar  
    13     7    29 1   
    14     8     9 ar  
    15     8    30 1   
    16     9    16 ar  
    17     9    31 1   
    18    10    11 ar  
    19    10    17 ar  
    20    10    45 1   
    21    11    12 1   
    22    11    15 ar  
    23    12    13 2   
    24    12    14 1   
    25    14    34 1   
    26    14    35 1   
    27    14    44 1   
    28    15    19 ar  
    29    15    36 1   
    30    16    17 1   
    31    17    18 ar  
    32    18    19 ar  
    33    18    37 1   
    34    19    20 1   
    35    20    21 ar  
    36    20    23 ar  
    37    21    22 ar  
    38    21    38 1   
    39    22    25 ar  
    40    22    39 1   
    41    23    24 ar  
    42    23    40 1   
    43    24    25 ar  
    44    24    41 1   
    45    25    42 1   
    46    32    45 1   
    47    33    45 1   
@<TRIPOS>SUBSTRUCTURE
     1 5TL         1 TEMP              0 ****  ****    0 ROOT
