@<TRIPOS>MOLECULE
molecule
   29    29     1     0     0
SMALL
bcc


@<TRIPOS>ATOM
      1 C1           0.0000     0.0000     0.0000 c3         1 5TM       0.309900
      2 C2           1.5310     0.0000     0.0000 c3         1 5TM       0.187100
      3 C3           2.0340     0.0000     1.4470 c3         1 5TM       0.176100
      4 C4           1.4520     1.2140     2.1780 c3         1 5TM       0.090100
      5 C5          -0.0760     1.1660     2.0940 c3         1 5TM       0.140100
      6 C6          -0.6640     2.4070     2.7700 c3         1 5TM       0.147400
      7 O2           2.0090    -1.1670    -0.6710 os         1 5TM      -0.575500
      8 O3           3.4600     0.0750     1.4580 os         1 5TM      -0.408600
      9 O4           1.8550     1.1850     3.5480 oh         1 5TM      -0.603800
     10 O5          -0.4760     1.1380     0.7230 os         1 5TM      -0.417600
     11 O6          -2.0890     2.3060     2.7950 oh         1 5TM      -0.598800
     12 O1S          3.6510    -0.1770    -2.1980 o          1 5TM      -0.731200
     13 O2S          2.5990    -2.2280    -2.6920 o          1 5TM      -0.731200
     14 O3S          1.3390    -0.0690    -2.6480 o          1 5TM      -0.731200
     15 O3X          5.5980    -0.4610     2.3620 oh         1 5TM      -0.610800
     16 S            2.3380    -0.9440    -2.1400 s6         1 5TM       1.550300
     17 S'           4.1130    -0.7090     2.5860 ss         1 5TM       0.278600
     18 O1          -0.4760    -1.1950     0.6250 oh         1 5TM      -0.621800
     19 H1          -0.3590     0.0470    -1.0210 h2         1 5TM       0.122700
     20 H2           1.8910     0.8880    -0.5060 h1         1 5TM       0.101700
     21 H3           1.7100    -0.9080     1.9410 h1         1 5TM       0.083700
     22 H4           1.8100     2.1230     1.7090 h1         1 5TM       0.057700
     23 H5          -0.4360     0.2730     2.5910 h1         1 5TM       0.075700
     24 H6          -0.3740     3.2920     2.2160 h1         1 5TM       0.027200
     25 H7          -0.2900     2.4770     3.7840 h1         1 5TM       0.027200
     26 H8           2.3520     1.9610     3.7460 ho         1 5TM       0.403000
     27 H9          -2.4450     3.0080     3.3150 ho         1 5TM       0.390000
     28 H10          6.0950    -0.9140     3.0230 ho         1 5TM       0.451000
     29 H11         -1.1880    -1.5520     0.1200 ho         1 5TM       0.409000
@<TRIPOS>BOND
     1    14    16 1   
     2    13    16 1   
     3    12    16 1   
     4    16     7 1   
     5     7     2 1   
     6     2     3 1   
     7     2     1 1   
     8     9     4 1   
     9     3     4 1   
    10     3     8 1   
    11     1    10 1   
    12    17     8 1   
    13    17    15 1   
    14     4     5 1   
    15    10     5 1   
    16     5     6 1   
    17     6    11 1   
    18     1    18 1   
    19     1    19 1   
    20     2    20 1   
    21     3    21 1   
    22     4    22 1   
    23     5    23 1   
    24     6    24 1   
    25     6    25 1   
    26     9    26 1   
    27    11    27 1   
    28    15    28 1   
    29    18    29 1   
@<TRIPOS>SUBSTRUCTURE
     1 5TM         1 TEMP              0 ****  ****    0 ROOT
