@<TRIPOS>MOLECULE
molecule
   61    63     1     0     0
SMALL
bcc


@<TRIPOS>ATOM
      1 CAA          0.0000     0.0000     0.0000 c3         1 5TN      -0.088100
      2 CAP          1.5180     0.0000     0.0000 c3         1 5TN      -0.093400
      3 CAQ          2.0840     0.0000     1.4110 c3         1 5TN       0.150400
      4 OAT          3.5080     0.0150     1.3370 os         1 5TN      -0.333900
      5 CAX          4.1750     0.6100     2.3670 ca         1 5TN       0.138100
      6 CAN          4.0090     0.1080     3.6560 ca         1 5TN      -0.178000
      7 CBA          4.6760     0.6720     4.7670 ca         1 5TN      -0.052300
      8 CBC          4.4520     0.0660     6.1580 c3         1 5TN      -0.010700
      9 CAB          4.5780    -1.4760     6.1420 c3         1 5TN      -0.081100
     10 CAC          3.0290     0.4320     6.6340 c3         1 5TN      -0.081100
     11 CAR          5.4950     0.5770     7.1760 c3         1 5TN      -0.069400
     12 CAS          5.6950     2.0810     7.0800 c3         1 5TN      -0.068400
     13 CBD          6.2450     2.5040     5.7000 c3         1 5TN      -0.009700
     14 CAD          7.7460     2.1500     5.6010 c3         1 5TN      -0.081600
     15 CAE          6.1030     4.0430     5.6270 c3         1 5TN      -0.081600
     16 CBB          5.4990     1.8060     4.5550 ca         1 5TN      -0.083300
     17 CAO          5.6650     2.2810     3.2360 ca         1 5TN      -0.094000
     18 CAZ          5.0110     1.6930     2.1550 cp         1 5TN      -0.020000
     19 CAY          5.2160     2.2300     0.8250 cp         1 5TN      -0.064000
     20 CAM          6.2550     1.7250     0.0410 ca         1 5TN      -0.083000
     21 CAW          4.3920     3.2370     0.3240 ca         1 5TN       0.108100
     22 OAH          3.3690     3.7480     1.0670 oh         1 5TN      -0.513100
     23 CAL          4.6050     3.7410    -0.9580 ca         1 5TN      -0.221000
     24 CAK          5.6430     3.2360    -1.7430 ca         1 5TN      -0.103000
     25 CAV          6.4680     2.2290    -1.2420 ca         1 5TN      -0.031800
     26 CAJ          7.5510     1.7040    -2.0590 ce         1 5TN      -0.211200
     27 CAI          8.1620     0.5130    -1.8750 cf         1 5TN      -0.125200
     28 CAU          9.2460     0.0900    -2.7840 c          1 5TN       0.873800
     29 OAG          9.6820    -1.1330    -2.3990 o          1 5TN      -0.836300
     30 OAF          9.6900     0.7220    -3.7270 o          1 5TN      -0.836300
     31 HAI          7.8510    -0.1350    -1.0650 ha         1 5TN       0.116000
     32 HAJ          7.8840     2.3220    -2.8840 ha         1 5TN       0.136000
     33 HAM          6.8960     0.9430     0.4300 ha         1 5TN       0.154000
     34 HAH          3.1820     4.6270     0.7820 ho         1 5TN       0.408000
     35 HAL          3.9640     4.5240    -1.3460 ha         1 5TN       0.116000
     36 HAK          5.8090     3.6270    -2.7390 ha         1 5TN       0.133000
     37 HAO          6.3170     3.1280     3.0590 ha         1 5TN       0.138000
     38 HAN          3.3510    -0.7390     3.8110 ha         1 5TN       0.130000
     39 HAQ1         1.7390     0.8800     1.9410 h1         1 5TN       0.027200
     40 HAQ2         1.7570    -0.8910     1.9340 h1         1 5TN       0.027200
     41 HAP1         1.8710     0.8960    -0.4960 hc         1 5TN       0.059200
     42 HAP2         1.8710    -0.8670    -0.5460 hc         1 5TN       0.059200
     43 HAA1        -0.3610    -0.9350     0.4120 hc         1 5TN       0.030367
     44 HAA2        -0.3610     0.8240     0.6040 hc         1 5TN       0.030367
     45 HAA3        -0.3610     0.1110    -1.0150 hc         1 5TN       0.030367
     46 HAB1         5.4280    -1.7630     5.5350 hc         1 5TN       0.034700
     47 HAB2         4.7170    -1.8380     7.1530 hc         1 5TN       0.034700
     48 HAB3         3.6750    -1.9080     5.7250 hc         1 5TN       0.034700
     49 HAC1         2.3120    -0.2440     6.1840 hc         1 5TN       0.034700
     50 HAC2         2.9760     0.3480     7.7130 hc         1 5TN       0.034700
     51 HAC3         2.8000     1.4490     6.3400 hc         1 5TN       0.034700
     52 HAR1         6.4410     0.0850     6.9870 hc         1 5TN       0.040700
     53 HAR2         5.1580     0.3320     8.1760 hc         1 5TN       0.040700
     54 HAS1         6.4110     2.3780     7.8370 hc         1 5TN       0.040700
     55 HAS2         4.7350     2.5620     7.2250 hc         1 5TN       0.040700
     56 HAD1         7.8540     1.0990     5.3590 hc         1 5TN       0.036200
     57 HAD2         8.2280     2.3530     6.5500 hc         1 5TN       0.036200
     58 HAD3         8.2080     2.7480     4.8260 hc         1 5TN       0.036200
     59 HAE1         6.3460     4.4740     6.5900 hc         1 5TN       0.036200
     60 HAE2         5.0830     4.2990     5.3630 hc         1 5TN       0.036200
     61 HAE3         6.7780     4.4330     4.8750 hc         1 5TN       0.036200
@<TRIPOS>BOND
     1     1     2 1   
     2     1    43 1   
     3     1    44 1   
     4     1    45 1   
     5     2     3 1   
     6     2    41 1   
     7     2    42 1   
     8     3     4 1   
     9     3    39 1   
    10     3    40 1   
    11     4     5 1   
    12     5     6 ar  
    13     5    18 ar  
    14     6     7 ar  
    15     6    38 1   
    16     7    16 ar  
    17     7     8 1   
    18     8     9 1   
    19     8    10 1   
    20     8    11 1   
    21     9    46 1   
    22     9    47 1   
    23     9    48 1   
    24    10    49 1   
    25    10    50 1   
    26    10    51 1   
    27    11    52 1   
    28    11    53 1   
    29    11    12 1   
    30    12    54 1   
    31    12    55 1   
    32    12    13 1   
    33    13    16 1   
    34    13    14 1   
    35    13    15 1   
    36    14    56 1   
    37    14    57 1   
    38    14    58 1   
    39    15    59 1   
    40    15    60 1   
    41    15    61 1   
    42    16    17 ar  
    43    17    18 ar  
    44    17    37 1   
    45    18    19 1   
    46    19    20 ar  
    47    19    21 ar  
    48    20    25 ar  
    49    20    33 1   
    50    21    22 1   
    51    21    23 ar  
    52    22    34 1   
    53    23    35 1   
    54    23    24 ar  
    55    24    25 ar  
    56    24    36 1   
    57    25    26 1   
    58    26    27 2   
    59    26    32 1   
    60    27    28 1   
    61    27    31 1   
    62    28    29 1   
    63    28    30 1   
@<TRIPOS>SUBSTRUCTURE
     1 5TN         1 TEMP              0 ****  ****    0 ROOT
