@<TRIPOS>MOLECULE
5TN
   61    63     1     0     0
SMALL
bcc


@<TRIPOS>ATOM
      1 CAA        -0.0540   -0.3800    0.3040 c3        1 5TN     -0.090100
      2 CAP         1.4310   -0.1400    0.2530 c3        1 5TN     -0.094400
      3 CAQ         2.0500   -0.2850    1.6320 c3        1 5TN      0.135400
      4 OAT         3.4610   -0.0880    1.4640 os        1 5TN     -0.317900
      5 CAX         4.0890    0.5440    2.5220 ca        1 5TN      0.133100
      6 CAN         3.8010    0.2030    3.8460 ca        1 5TN     -0.193000
      7 CBA         4.5130    0.7710    4.9110 ca        1 5TN     -0.048300
      8 CBC         4.1630    0.3340    6.3090 c3        1 5TN     -0.001700
      9 CAB         4.0700   -1.1890    6.3840 c3        1 5TN     -0.082600
     10 CAC         2.8100    0.9250    6.6960 c3        1 5TN     -0.082600
     11 CAR         5.2290    0.7770    7.3110 c3        1 5TN     -0.067400
     12 CAS         5.6680    2.2020    7.0880 c3        1 5TN     -0.068400
     13 CBD         6.3060    2.4060    5.7130 c3        1 5TN      0.001300
     14 CAD         7.7310    1.8590    5.7160 c3        1 5TN     -0.084600
     15 CAE         6.3620    3.9110    5.4530 c3        1 5TN     -0.084600
     16 CBB         5.5120    1.7170    4.6350 ca        1 5TN     -0.090300
     17 CAO         5.7980    2.0380    3.3000 ca        1 5TN     -0.106000
     18 CAZ         5.0980    1.4840    2.2250 cp        1 5TN     -0.005000
     19 CAY         5.4510    1.8790    0.8630 cp        1 5TN     -0.081000
     20 CAM         6.7520    1.6440    0.3960 ca        1 5TN     -0.106000
     21 CAW         4.5450    2.5220    0.0010 ca        1 5TN      0.116100
     22 OAH         3.2690    2.7790    0.4690 oh        1 5TN     -0.512100
     23 CAL         4.9400    2.9130   -1.2870 ca        1 5TN     -0.219000
     24 CAK         6.2340    2.6670   -1.7280 ca        1 5TN     -0.071000
     25 CAV         7.1600    2.0240   -0.8900 ca        1 5TN     -0.034800
     26 CAJ         8.5320    1.7640   -1.2930 ce        1 5TN     -0.180200
     27 CAI         9.0500    1.7180   -2.5250 cf        1 5TN     -0.145200
     28 CAU         8.3840    1.8850   -3.8690 c         1 5TN      0.894800
     29 OAG         8.2470    0.8520   -4.5820 o         1 5TN     -0.833300
     30 OAF         8.0450    3.0480   -4.2410 o         1 5TN     -0.833300
     31 HAI        10.1290    1.5000   -2.6290 ha        1 5TN      0.098000
     32 HAJ         9.2040    1.5710   -0.4340 ha        1 5TN      0.083000
     33 HAM         7.4660    1.1380    1.0640 ha        1 5TN      0.123000
     34 HAH         2.7690    3.1600   -0.2670 ho        1 5TN      0.405000
     35 HAL         4.2210    3.4130   -1.9510 ha        1 5TN      0.123000
     36 HAK         6.5470    2.9810   -2.7460 ha        1 5TN      0.210000
     37 HAO         6.5990    2.7610    3.0750 ha        1 5TN      0.140000
     38 HAN         3.0060   -0.5300    4.0470 ha        1 5TN      0.129000
     39 HAQ1        1.6170    0.4650    2.3430 h1        1 5TN      0.031700
     40 HAQ2        1.8970   -1.3190    2.0410 h1        1 5TN      0.031700
     41 HAP1        1.9200   -0.8640   -0.4500 hc        1 5TN      0.062700
     42 HAP2        1.6520    0.8920   -0.1310 hc        1 5TN      0.062700
     43 HAA1       -0.5510    0.3530    0.9840 hc        1 5TN      0.029033
     44 HAA2       -0.4960   -0.2710   -0.7150 hc        1 5TN      0.029033
     45 HAA3       -0.2770   -1.4090    0.6770 hc        1 5TN      0.029033
     46 HAB1        4.9660   -1.6560    5.9100 hc        1 5TN      0.033533
     47 HAB2        4.0160   -1.5130    7.4510 hc        1 5TN      0.033533
     48 HAB3        3.1560   -1.5600    5.8610 hc        1 5TN      0.033533
     49 HAC1        2.8560    2.0400    6.7020 hc        1 5TN      0.033533
     50 HAC2        2.0290    0.6070    5.9650 hc        1 5TN      0.033533
     51 HAC3        2.5140    0.5710    7.7130 hc        1 5TN      0.033533
     52 HAR1        6.1160    0.0950    7.2270 hc        1 5TN      0.038200
     53 HAR2        4.8210    0.6690    8.3500 hc        1 5TN      0.038200
     54 HAS1        4.7850    2.8870    7.1870 hc        1 5TN      0.037700
     55 HAS2        6.4080    2.4940    7.8800 hc        1 5TN      0.037700
     56 HAD1        8.3460    2.3980    6.4770 hc        1 5TN      0.035367
     57 HAD2        7.7340    0.7700    5.9570 hc        1 5TN      0.035367
     58 HAD3        8.1970    2.0010    4.7120 hc        1 5TN      0.035367
     59 HAE1        5.3400    4.3060    5.2430 hc        1 5TN      0.035367
     60 HAE2        7.0190    4.1410    4.5820 hc        1 5TN      0.035367
     61 HAE3        6.7740    4.4350    6.3500 hc        1 5TN      0.035367
@<TRIPOS>BOND
     1    1    2 1   
     2    1   43 1   
     3    1   44 1   
     4    1   45 1   
     5    2    3 1   
     6    2   41 1   
     7    2   42 1   
     8    3    4 1   
     9    3   39 1   
    10    3   40 1   
    11    4    5 1   
    12    5    6 ar  
    13    5   18 ar  
    14    6    7 ar  
    15    6   38 1   
    16    7    8 1   
    17    7   16 ar  
    18    8    9 1   
    19    8   10 1   
    20    8   11 1   
    21    9   46 1   
    22    9   47 1   
    23    9   48 1   
    24   10   49 1   
    25   10   50 1   
    26   10   51 1   
    27   11   12 1   
    28   11   52 1   
    29   11   53 1   
    30   12   13 1   
    31   12   54 1   
    32   12   55 1   
    33   13   14 1   
    34   13   15 1   
    35   13   16 1   
    36   14   56 1   
    37   14   57 1   
    38   14   58 1   
    39   15   59 1   
    40   15   60 1   
    41   15   61 1   
    42   16   17 ar  
    43   17   18 ar  
    44   17   37 1   
    45   18   19 1   
    46   19   20 ar  
    47   19   21 ar  
    48   20   25 ar  
    49   20   33 1   
    50   21   22 1   
    51   21   23 ar  
    52   22   34 1   
    53   23   24 ar  
    54   23   35 1   
    55   24   25 ar  
    56   24   36 1   
    57   25   26 1   
    58   26   27 2   
    59   26   32 1   
    60   27   28 1   
    61   27   31 1   
    62   28   29 1   
    63   28   30 1   
@<TRIPOS>SUBSTRUCTURE
     1 5TN         1 TEMP              0 ****  ****    0 ROOT
