@<TRIPOS>MOLECULE
molecule
   35    36     1     0     0
SMALL
bcc


@<TRIPOS>ATOM
      1 CAG          0.0000     0.0000     0.0000 c3         1 5TO      -0.080400
      2 CAB          1.5420     0.0000     0.0000 c3         1 5TO      -0.083900
      3 CAC          1.9230     0.0000     1.5010 c3         1 5TO      -0.083900
      4 CAH          0.8520    -0.9290     2.1250 c3         1 5TO      -0.080400
      5 CAM         -0.4400    -0.5910     1.3520 c3         1 5TO      -0.077700
      6 CAI         -1.2630    -1.8600     1.1270 c3         1 5TO      -0.060400
      7 CAF         -1.7960    -2.3660     2.4680 c3         1 5TO      -0.154400
      8 CAL         -2.6080    -3.6170     2.2460 c          1 5TO       0.675100
      9 OAA         -2.7460    -4.0590     1.1250 o          1 5TO      -0.608100
     10 NAN         -3.1810    -4.2440     3.2930 n          1 5TO      -0.500800
     11 CAJ         -3.1000    -3.8130     4.7010 c3         1 5TO       0.100000
     12 CAD         -4.3520    -4.4270     5.3750 c3         1 5TO      -0.097400
     13 CAE         -4.4540    -5.7980     4.6540 c3         1 5TO      -0.097400
     14 CAK         -3.9950    -5.4660     3.2190 c3         1 5TO       0.100000
     15 H1          -0.3700     1.0140    -0.0990 hc         1 5TO       0.043950
     16 H2          -0.3700    -0.6160    -0.8100 hc         1 5TO       0.043950
     17 H3           1.9200    -0.8920    -0.4850 hc         1 5TO       0.043700
     18 H4           1.9200     0.8920    -0.4850 hc         1 5TO       0.043700
     19 H5           1.8500     0.9990     1.9140 hc         1 5TO       0.043700
     20 H6           2.9150    -0.4110     1.6430 hc         1 5TO       0.043700
     21 H7           0.7310    -0.7090     3.1790 hc         1 5TO       0.043950
     22 H8           1.1210    -1.9670     1.9760 hc         1 5TO       0.043950
     23 H9          -1.0190     0.1410     1.9030 hc         1 5TO       0.047700
     24 H10         -0.6370    -2.6210     0.6770 hc         1 5TO       0.059200
     25 H11         -2.0930    -1.6400     0.4680 hc         1 5TO       0.059200
     26 H12         -0.9660    -2.5870     3.1270 hc         1 5TO       0.059200
     27 H13         -2.4220    -1.6050     2.9180 hc         1 5TO       0.059200
     28 H14         -3.1300    -2.7330     4.7650 h1         1 5TO       0.048450
     29 H15         -2.1980    -4.2000     5.1610 h1         1 5TO       0.048450
     30 H16         -4.1910    -4.5620     6.4380 hc         1 5TO       0.055450
     31 H17         -5.2300    -3.8230     5.1810 hc         1 5TO       0.055450
     32 H18         -5.4770    -6.1540     4.6550 hc         1 5TO       0.055450
     33 H19         -3.7880    -6.5200     5.1110 hc         1 5TO       0.055450
     34 H20         -4.8580    -5.2950     2.5880 h1         1 5TO       0.048450
     35 H21         -3.3990    -6.2810     2.8270 h1         1 5TO       0.048450
@<TRIPOS>BOND
     1     9     8 2   
     2    11    12 1   
     3    11    10 1   
     4    12    13 1   
     5     8    10 1   
     6     8     7 1   
     7    10    14 1   
     8     6     7 1   
     9     6     5 1   
    10     1     5 1   
    11     1     2 1   
    12    13    14 1   
    13     5     4 1   
    14     2     3 1   
    15     4     3 1   
    16     1    15 1   
    17     1    16 1   
    18     2    17 1   
    19     2    18 1   
    20     3    19 1   
    21     3    20 1   
    22     4    21 1   
    23     4    22 1   
    24     5    23 1   
    25     6    24 1   
    26     6    25 1   
    27     7    26 1   
    28     7    27 1   
    29    11    28 1   
    30    11    29 1   
    31    12    30 1   
    32    12    31 1   
    33    13    32 1   
    34    13    33 1   
    35    14    34 1   
    36    14    35 1   
@<TRIPOS>SUBSTRUCTURE
     1 5TO         1 TEMP              0 ****  ****    0 ROOT
