@<TRIPOS>MOLECULE
5TQ
   38    40     1     0     0
SMALL
bcc


@<TRIPOS>ATOM
      1 N12          0.0000     0.0000     0.0000 n3         1 5TQ      -0.533600
      2 C13          1.4720     0.0000     0.0000 c3         1 5TQ       0.140800
      3 C15         -0.5270     0.3170    -1.3340 c3         1 5TQ       0.141800
      4 C17         -0.7110     2.0860    -3.0880 c3         1 5TQ      -0.133400
      5 C01         -0.5080    -4.0960     4.5840 ca         1 5TQ      -0.057000
      6 C02         -1.6620    -4.7050     4.1360 ca         1 5TQ       0.062900
      7 C03         -2.2340    -4.3350     2.9220 ca         1 5TQ      -0.102000
      8 C04         -1.6700    -3.3600     2.1500 ca         1 5TQ      -0.095000
      9 C05         -0.5020    -2.7270     2.5790 ca         1 5TQ       0.008200
     10 C06          0.0840    -3.1010     3.8080 ca         1 5TQ      -0.149600
     11 C07          1.3110    -2.4130     4.2230 c          1 5TQ       0.610100
     12 C08          0.1390    -1.6740     1.7790 cc         1 5TQ      -0.142400
     13 C09          1.2590    -1.0920     2.2310 cd         1 5TQ      -0.113600
     14 N10          1.8280    -1.4620     3.4270 ns         1 5TQ       0.038900
     15 C11         -0.4980    -1.2960     0.4680 c3         1 5TQ       0.223000
     16 C14          1.9510     0.0000     1.4490 c3         1 5TQ       0.031800
     17 C16         -0.1620     1.7570    -1.6980 c3         1 5TQ      -0.022400
     18 C18         -0.3520     3.5050    -3.4470 c          1 5TQ       0.979600
     19 O19          1.8540    -2.6990     5.2750 o          1 5TQ      -0.700500
     20 F20         -2.2420    -5.6700     4.8820 f          1 5TQ      -0.132900
     21 O21          0.2780     4.1840    -2.6710 o          1 5TQ      -0.903300
     22 O22         -0.7330     4.0160    -4.6290 o          1 5TQ      -0.903300
     23 H131         1.8360    -0.8870    -0.5040 h1         1 5TQ       0.027700
     24 H151        -1.6040     0.2060    -1.3330 h1         1 5TQ       0.002200
     25 H152        -0.0960    -0.3600    -2.0620 h1         1 5TQ       0.002200
     26 H172        -0.2800     1.4090    -3.8160 hc         1 5TQ       0.004200
     27 H171        -1.7890     1.9760    -3.0860 hc         1 5TQ       0.004200
     28 H011        -0.0670    -4.3870     5.5290 ha         1 5TQ       0.136000
     29 H031        -3.1400    -4.8250     2.5880 ha         1 5TQ       0.113000
     30 H041        -2.1260    -3.0810     1.2070 ha         1 5TQ       0.123000
     31 H1           2.6670    -1.0010     3.7180 hn         1 5TQ       0.170500
     32 H111        -1.5720    -1.2370     0.5980 h1         1 5TQ       0.013700
     33 H141         1.7250     0.9590     1.9000 hc         1 5TQ       0.027700
     34 H161         0.9150     1.8670    -1.7000 hc         1 5TQ       0.028700
     35 H162        -0.5930     2.4330    -0.9700 hc         1 5TQ       0.028700
     36 H3           1.8360     0.8870    -0.5030 h1         1 5TQ       0.027700
     37 H4          -0.2650    -2.0530    -0.2710 h1         1 5TQ       0.013700
     38 H5           3.0210    -0.1690     1.4720 hc         1 5TQ       0.027700
@<TRIPOS>BOND
     1     1     2 1   
     2     1     3 1   
     3     1    15 1   
     4     2    16 1   
     5     2    23 1   
     6     2    36 1   
     7     3    17 1   
     8     3    24 1   
     9     3    25 1   
    10     4    17 1   
    11     4    18 1   
    12     4    26 1   
    13     4    27 1   
    14     5     6 ar  
    15     5    10 ar  
    16     5    28 1   
    17     6     7 ar  
    18     6    20 1   
    19     7     8 ar  
    20     7    29 1   
    21     8     9 ar  
    22     8    30 1   
    23     9    10 ar  
    24     9    12 1   
    25    10    11 1   
    26    11    14 1   
    27    11    19 2   
    28    12    13 2   
    29    12    15 1   
    30    13    14 1   
    31    13    16 1   
    32    14    31 1   
    33    15    32 1   
    34    15    37 1   
    35    16    33 1   
    36    16    38 1   
    37    17    34 1   
    38    17    35 1   
    39    18    21 1   
    40    18    22 1   
@<TRIPOS>SUBSTRUCTURE
     1 5TQ         1 TEMP              0 ****  ****    0 ROOT
