@<TRIPOS>MOLECULE
5TS
   18    18     1     0     0
SMALL
bcc


@<TRIPOS>ATOM
      1 C1         -0.2770   -0.0140    0.0170 c2        1 5TS     -0.162000
      2 N1          1.0300   -0.1630   -0.2550 n2        1 5TS     -0.050000
      3 O1          1.7090   -0.1890    0.8750 os        1 5TS     -0.070000
      4 S1          0.1400   -0.0340    4.5060 ss        1 5TS      0.507000
      5 C2          1.3630   -0.0510    3.2990 c2        1 5TS     -0.534000
      6 C3          0.8160   -0.0480    1.9750 c2        1 5TS      0.093000
      7 C4         -0.4650    0.0670    1.4570 c2        1 5TS     -0.240000
      8 C5          0.9750    0.0260    5.9140 c2        1 5TS     -0.913000
      9 C6          2.2980    0.0020    6.0500 c2        1 5TS     -0.187000
     10 C7          2.6770   -0.0670    3.5520 c1        1 5TS      0.193000
     11 S8          0.0410    0.1700    7.5160 s6        1 5TS      2.876000
     12 O9         -1.1450   -0.5450    7.2910 o         1 5TS     -1.050333
     13 O10         0.9100   -0.4120    8.4520 o         1 5TS     -1.050333
     14 H1         -1.4010    0.1890    1.9920 ha        1 5TS      0.186000
     15 H4         -1.0480    0.0360   -0.7510 h4        1 5TS      0.177000
     16 H6          3.0170   -0.0500    5.1810 ha        1 5TS      0.137000
     17 H7          2.8120    0.0190    7.0230 ha        1 5TS      0.137000
     18 OXT        -0.1340    1.5520    7.6710 o         1 5TS     -1.050333
@<TRIPOS>BOND
     1    1    2 1
     2    1    7 1
     3    1   15 1
     4    2    3 1
     5    3    6 1
     6    4    5 1
     7    4    8 1
     8    5    6 1
     9    5   10 1
    10    6    7 1
    11    7   14 1
    12    8    9 1
    13    8   11 1
    14    9   16 1
    15    9   17 1
    16   11   12 1
    17   11   13 1
    18   11   18 1
@<TRIPOS>SUBSTRUCTURE
     1 5TS         1 TEMP              0 ****  ****    0 ROOT
