@<TRIPOS>MOLECULE
molecule
   35    36     1     0     0
SMALL
bcc


@<TRIPOS>ATOM
      1 CAI          0.0000     0.0000     0.0000 c3         1 5TT       0.166300
      2 CAG          1.5300     0.0000     0.0000 c3         1 5TT      -0.081900
      3 CAF          2.0360     0.0000     1.4460 c3         1 5TT      -0.083400
      4 CAH          1.4720     1.2220     2.1740 c3         1 5TT      -0.081900
      5 CAJ         -0.0570     1.1880     2.1120 c3         1 5TT       0.166300
      6 NAO         -0.4910     1.1890     0.7090 nh         1 5TT      -0.595000
      7 CAN         -1.8800     1.2910     0.6140 ca         1 5TT       0.109600
      8 CAE         -2.4930     1.3090    -0.6320 ca         1 5TT      -0.170000
      9 CAC         -3.8680     1.4090    -0.7220 ca         1 5TT      -0.091500
     10 CAD         -2.6530     1.3670     1.7660 ca         1 5TT      -0.170000
     11 CAB         -4.0260     1.4670     1.6690 ca         1 5TT      -0.091500
     12 CAM         -4.6330     1.4920     0.4260 ca         1 5TT      -0.114300
     13 CAK         -6.1330     1.6010     0.3250 c3         1 5TT       0.206100
     14 NAL         -6.5180     3.0170     0.2680 n7         1 5TT      -0.815200
     15 CAA         -7.9770     3.1620     0.1680 c3         1 5TT       0.146100
     16 H1          -0.3600    -0.8910     0.5010 h1         1 5TT       0.041700
     17 H2          -0.3600     0.0160    -1.0220 h1         1 5TT       0.041700
     18 H3           1.8910     0.8860    -0.5080 hc         1 5TT       0.050200
     19 H4           1.8910    -0.8860    -0.5080 hc         1 5TT       0.050200
     20 H5           1.7040    -0.9030     1.9440 hc         1 5TT       0.041700
     21 H6           3.1190     0.0450     1.4500 hc         1 5TT       0.041700
     22 H7           1.7910     1.2040     3.2090 hc         1 5TT       0.050200
     23 H8           1.8320     2.1250     1.6960 hc         1 5TT       0.050200
     24 H9          -0.4170     0.2890     2.5980 h1         1 5TT       0.041700
     25 H10         -0.4580     2.0610     2.6130 h1         1 5TT       0.041700
     26 H11         -1.8940     1.2440    -1.5330 ha         1 5TT       0.136000
     27 H12         -4.3460     1.4260    -1.6930 ha         1 5TT       0.130500
     28 H13         -2.1780     1.3470     2.7390 ha         1 5TT       0.136000
     29 H14         -4.6290     1.5290     2.5670 ha         1 5TT       0.130500
     30 H15         -6.4720     1.0980    -0.5730 h1         1 5TT       0.035200
     31 H16         -6.5880     1.1370     1.1920 h1         1 5TT       0.035200
     32 H17         -6.1910     3.4850     1.0900 hn         1 5TT       0.354800
     33 H19         -8.3280     2.6700    -0.7310 h1         1 5TT       0.030033
     34 H20         -8.2330     4.2140     0.1270 h1         1 5TT       0.030033
     35 H21         -8.4450     2.7100     1.0340 h1         1 5TT       0.030033
@<TRIPOS>BOND
     1     4     3 1   
     2     4     5 1   
     3     3     2 1   
     4     5     6 1   
     5     2     1 1   
     6     6     1 1   
     7     6     7 1   
     8    10     7 ar  
     9    10    11 ar  
    10     7     8 ar  
    11    11    12 ar  
    12     8     9 ar  
    13    12     9 ar  
    14    12    13 1   
    15    13    14 1   
    16    14    15 1   
    17     1    16 1   
    18     1    17 1   
    19     2    18 1   
    20     2    19 1   
    21     3    20 1   
    22     3    21 1   
    23     4    22 1   
    24     4    23 1   
    25     5    24 1   
    26     5    25 1   
    27     8    26 1   
    28     9    27 1   
    29    10    28 1   
    30    11    29 1   
    31    13    30 1   
    32    13    31 1   
    33    14    32 1   
    34    15    33 1   
    35    15    34 1   
    36    15    35 1   
@<TRIPOS>SUBSTRUCTURE
     1 5TT         1 TEMP              0 ****  ****    0 ROOT
