@<TRIPOS>MOLECULE
5TT
   35    36     1     0     0
SMALL
bcc


@<TRIPOS>ATOM
      1 CAI          0.0000     0.0000     0.0000 c3         1 5TT       0.136300
      2 CAG          1.5300     0.0000     0.0000 c3         1 5TT      -0.026400
      3 CAF          2.0360     0.0000     1.4460 c3         1 5TT      -0.027400
      4 CAH          1.4720     1.2220     2.1740 c3         1 5TT      -0.026400
      5 CAJ         -0.0570     1.1880     2.1120 c3         1 5TT       0.136300
      6 NAO         -0.4910     1.1890     0.7090 nh         1 5TT      -0.356000
      7 CAN         -1.8800     1.2910     0.6140 ca         1 5TT       0.025600
      8 CAE         -2.4930     1.3090    -0.6320 ca         1 5TT      -0.151500
      9 CAC         -3.8680     1.4090    -0.7220 ca         1 5TT      -0.060000
     10 CAD         -2.6530     1.3670     1.7660 ca         1 5TT      -0.151500
     11 CAB         -4.0260     1.4670     1.6690 ca         1 5TT      -0.060000
     12 CAM         -4.6330     1.4920     0.4260 ca         1 5TT      -0.125300
     13 CAK         -6.1330     1.6010     0.3250 c3         1 5TT       0.205100
     14 NAL         -6.5180     3.0170     0.2680 n7         1 5TT      -0.582200
     15 CAA         -7.9770     3.1620     0.1680 c3         1 5TT       0.178100
     16 H1          -0.3600    -0.8910     0.5010 h1         1 5TT       0.017950
     17 H2          -0.3600     0.0160    -1.0220 h1         1 5TT       0.017950
     18 H3           1.8910     0.8860    -0.5080 hc         1 5TT       0.020450
     19 H4           1.8910    -0.8860    -0.5080 hc         1 5TT       0.020450
     20 H5           1.7040    -0.9030     1.9440 hc         1 5TT       0.013700
     21 H6           3.1190     0.0450     1.4500 hc         1 5TT       0.013700
     22 H7           1.7910     1.2040     3.2090 hc         1 5TT       0.020450
     23 H8           1.8320     2.1250     1.6960 hc         1 5TT       0.020450
     24 H9          -0.4170     0.2890     2.5980 h1         1 5TT       0.017950
     25 H10         -0.4580     2.0610     2.6130 h1         1 5TT       0.017950
     26 H11         -1.8940     1.2440    -1.5330 ha         1 5TT       0.118500
     27 H12         -4.3460     1.4260    -1.6930 ha         1 5TT       0.103500
     28 H13         -2.1780     1.3470     2.7390 ha         1 5TT       0.118500
     29 H14         -4.6290     1.5290     2.5670 ha         1 5TT       0.103500
     30 H15         -6.4720     1.0980    -0.5730 h1         1 5TT       0.007200
     31 H16         -6.5880     1.1370     1.1920 h1         1 5TT       0.007200
     32 H17         -6.1910     3.4850     1.0900 hn         1 5TT       0.253800
     33 H19         -8.3280     2.6700    -0.7310 h1         1 5TT      -0.002633
     34 H20         -8.2330     4.2140     0.1270 h1         1 5TT      -0.002633
     35 H21         -8.4450     2.7100     1.0340 h1         1 5TT      -0.002633
@<TRIPOS>BOND
     1     1     2 1   
     2     1     6 1   
     3     1    16 1   
     4     1    17 1   
     5     2     3 1   
     6     2    18 1   
     7     2    19 1   
     8     3     4 1   
     9     3    20 1   
    10     3    21 1   
    11     4     5 1   
    12     4    22 1   
    13     4    23 1   
    14     5     6 1   
    15     5    24 1   
    16     5    25 1   
    17     6     7 1   
    18     7     8 ar  
    19     7    10 ar  
    20     8     9 ar  
    21     8    26 1   
    22     9    12 ar  
    23     9    27 1   
    24    10    11 ar  
    25    10    28 1   
    26    11    12 ar  
    27    11    29 1   
    28    12    13 1   
    29    13    14 1   
    30    13    30 1   
    31    13    31 1   
    32    14    15 1   
    33    14    32 1   
    34    15    33 1   
    35    15    34 1   
    36    15    35 1   
@<TRIPOS>SUBSTRUCTURE
     1 5TT         1 TEMP              0 ****  ****    0 ROOT
