@<TRIPOS>MOLECULE
5TU
   33    34     1     0     0
SMALL
bcc


@<TRIPOS>ATOM
      1 N1           0.0000     0.0000     0.0000 nz         1 5TU       0.199600
      2 C4           5.6660     1.0860    -6.5180 cc         1 5TU      -0.185400
      3 C5           6.5190     2.2560    -6.9330 c3         1 5TU       0.083100
      4 C6           5.5560    -0.0430    -7.3510 c          1 5TU       0.578700
      5 C7           3.4720    -0.0040    -3.6800 ca         1 5TU       0.096200
      6 C8           4.1700    -0.0030    -2.4720 ca         1 5TU      -0.093000
      7 C10          2.0850    -0.0010    -1.2790 ca         1 5TU      -0.258600
      8 C13          1.3480     0.0000     0.0000 c          1 5TU       0.357700
      9 O1           1.9560     0.0000     1.0530 o          1 5TU      -0.435100
     10 C9           3.4830    -0.0010    -1.2790 ca         1 5TU      -0.024500
     11 C11          1.3870     0.0080    -2.4890 ca         1 5TU      -0.024500
     12 C12          2.0760     0.0010    -3.6800 ca         1 5TU      -0.093000
     13 C2           4.2120    -0.0050    -4.9640 cd         1 5TU      -0.201200
     14 C1           4.1240    -1.0840    -5.8140 cc         1 5TU      -0.108400
     15 C3           5.0000     1.1080    -5.3310 cd         1 5TU      -0.035000
     16 N            4.7960    -1.0910    -6.9840 n          1 5TU       0.145000
     17 C            4.6970    -2.2550    -7.8670 c3         1 5TU       0.039300
     18 H1          -0.3340    -0.8150    -0.4750 hn         1 5TU       0.246133
     19 H2          -0.3340    -0.0040     0.9440 hn         1 5TU       0.246133
     20 H3           6.3420     3.0890    -6.2630 hc         1 5TU       0.018367
     21 H4           6.2650     2.5480    -7.9450 hc         1 5TU       0.018367
     22 H5           7.5640     1.9750    -6.8900 hc         1 5TU       0.018367
     23 H6           5.2530    -0.0050    -2.4720 ha         1 5TU       0.135500
     24 H7           4.0260    -0.0010    -0.3420 ha         1 5TU       0.107000
     25 H8           0.3040     0.0120    -2.4900 ha         1 5TU       0.107000
     26 H9           1.5350     0.0040    -4.6190 ha         1 5TU       0.135500
     27 H10          3.5110    -1.9350    -5.5410 h4         1 5TU       0.128000
     28 H11          5.2130     1.8840    -4.6050 ha         1 5TU       0.116000
     29 H12          4.0580    -2.0150    -8.7090 h1         1 5TU       0.033700
     30 H13          4.2750    -3.0890    -7.3200 h1         1 5TU       0.033700
     31 H14          5.6840    -2.5210    -8.2270 h1         1 5TU       0.033700
     32 H131        -0.3340     0.8180    -0.4700 hn         1 5TU       0.246133
     33 O            6.1550    -0.0710    -8.4150 o          1 5TU      -0.662500
@<TRIPOS>BOND
     1     1     8 1   
     2     1    18 1   
     3     1    19 1   
     4     1    32 1   
     5     2     3 1   
     6     2     4 1   
     7     2    15 2   
     8     3    20 1   
     9     3    21 1   
    10     3    22 1   
    11     4    16 1   
    12     4    33 2   
    13     5     6 ar  
    14     5    12 ar  
    15     5    13 1   
    16     6    10 ar  
    17     6    23 1   
    18     7     8 1   
    19     7    10 ar  
    20     7    11 ar  
    21     8     9 2   
    22    10    24 1   
    23    11    12 ar  
    24    11    25 1   
    25    12    26 1   
    26    13    14 2   
    27    13    15 1   
    28    14    16 1   
    29    14    27 1   
    30    15    28 1   
    31    16    17 1   
    32    17    29 1   
    33    17    30 1   
    34    17    31 1   
@<TRIPOS>SUBSTRUCTURE
     1 5TU         1 TEMP              0 ****  ****    0 ROOT
