@<TRIPOS>MOLECULE
molecule
   33    34     1     0     0
SMALL
bcc


@<TRIPOS>ATOM
      1 N1           0.0000     0.0000     0.0000 nz         1 5TU      -0.678400
      2 C4           5.6660     1.0860    -6.5180 cc         1 5TU      -0.179400
      3 C5           6.5190     2.2560    -6.9330 c3         1 5TU      -0.030900
      4 C6           5.5560    -0.0430    -7.3510 c          1 5TU       0.677700
      5 C7           3.4720    -0.0040    -3.6800 ca         1 5TU       0.072200
      6 C8           4.1700    -0.0030    -2.4720 ca         1 5TU      -0.119000
      7 C10          2.0850    -0.0010    -1.2790 ca         1 5TU      -0.230600
      8 C13          1.3480     0.0000     0.0000 c          1 5TU       0.507700
      9 O1           1.9560     0.0000     1.0530 o          1 5TU      -0.423100
     10 C9           3.4830    -0.0010    -1.2790 ca         1 5TU      -0.064000
     11 C11          1.3870     0.0080    -2.4890 ca         1 5TU      -0.064000
     12 C12          2.0760     0.0010    -3.6800 ca         1 5TU      -0.119000
     13 C2           4.2120    -0.0050    -4.9640 cc         1 5TU      -0.204200
     14 C1           4.1240    -1.0840    -5.8140 cd         1 5TU       0.039600
     15 C3           5.0000     1.1080    -5.3310 cc         1 5TU      -0.059000
     16 N            4.7960    -1.0910    -6.9840 n          1 5TU      -0.303000
     17 C            4.6970    -2.2550    -7.8670 c3         1 5TU       0.075300
     18 H1          -0.3340    -0.8150    -0.4750 hn         1 5TU       0.477133
     19 H2          -0.3340    -0.0040     0.9440 hn         1 5TU       0.477133
     20 H3           6.3420     3.0890    -6.2630 hc         1 5TU       0.056700
     21 H4           6.2650     2.5480    -7.9450 hc         1 5TU       0.056700
     22 H5           7.5640     1.9750    -6.8900 hc         1 5TU       0.056700
     23 H6           5.2530    -0.0050    -2.4720 ha         1 5TU       0.169500
     24 H7           4.0260    -0.0010    -0.3420 ha         1 5TU       0.139000
     25 H8           0.3040     0.0120    -2.4900 ha         1 5TU       0.139000
     26 H9           1.5350     0.0040    -4.6190 ha         1 5TU       0.169500
     27 H10          3.5110    -1.9350    -5.5410 h4         1 5TU       0.156000
     28 H11          5.2130     1.8840    -4.6050 ha         1 5TU       0.143000
     29 H12          4.0580    -2.0150    -8.7090 h1         1 5TU       0.066367
     30 H13          4.2750    -3.0890    -7.3200 h1         1 5TU       0.066367
     31 H14          5.6840    -2.5210    -8.2270 h1         1 5TU       0.066367
     32 H131        -0.3340     0.8180    -0.4700 hn         1 5TU       0.477133
     33 O            6.1550    -0.0710    -8.4150 o          1 5TU      -0.616500
@<TRIPOS>BOND
     1     1     8 1
     2     8     7 1
     3     8     9 2
     4    11     7 ar
     5    11    12 ar
     6     7    10 ar
     7    12     5 ar
     8    10     6 ar
     9     5     6 ar
    10     5    13 1
    11    15    13 1
    12    15     2 2
    13    13    14 2
    14     3     2 1
    15     2     4 1
    16    14    16 1
    17     4    16 1
    18     4    33 2
    19    16    17 1
    20     1    18 1
    21     1    19 1
    22     3    20 1
    23     3    21 1
    24     3    22 1
    25     6    23 1
    26    10    24 1
    27    11    25 1
    28    12    26 1
    29    14    27 1
    30    15    28 1
    31    17    29 1
    32    17    30 1
    33    17    31 1
    34    32     1 1
@<TRIPOS>SUBSTRUCTURE
     1 5TU         1 TEMP              0 ****  ****    0 ROOT
