@<TRIPOS>MOLECULE
5TX
   21    21     1     0     0
SMALL
bcc


@<TRIPOS>ATOM
      1 C01          0.0000     0.0000     0.0000 c3         1 5TX       0.240500
      2 C02          1.5450     0.0000     0.0000 c3         1 5TX      -0.007400
      3 C03          1.8600     0.0000     1.5140 c3         1 5TX      -0.109200
      4 C04          0.6320    -0.6160     2.1480 c          1 5TX       0.693500
      5 P05          3.3330    -1.0170     1.8590 p5         1 5TX       0.429700
      6 O06          3.0650    -2.5310     1.3800 o          1 5TX      -0.729167
      7 O07          4.4950    -0.4670     1.1250 o          1 5TX      -0.729167
      8 O08          3.6390    -1.0000     3.4390 o          1 5TX      -0.729167
      9 C09          2.0670     1.4290     2.0170 c3         1 5TX       0.060900
     10 O10          0.5790    -1.0520     3.2780 o          1 5TX      -0.650500
     11 N12         -0.3920    -0.6070     1.2780 n          1 5TX      -0.098300
     12 O13         -0.4940     1.3380    -0.0860 oh         1 5TX      -0.596800
     13 O11         -1.6830    -1.1180     1.5560 oh         1 5TX      -0.473100
     14 H1          -0.3720    -0.5960    -0.8250 h2         1 5TX      -0.037300
     15 H2           1.9300    -0.8950    -0.4730 hc         1 5TX       0.033200
     16 H3           1.9300     0.8950    -0.4740 hc         1 5TX       0.033200
     17 H6           2.3910     1.4040     3.0510 hc         1 5TX      -0.015300
     18 H7           2.8220     1.9180     1.4140 hc         1 5TX      -0.015300
     19 H8           1.1350     1.9770     1.9440 hc         1 5TX      -0.015300
     20 H9          -1.0430     1.4220    -0.8480 ho         1 5TX       0.350000
     21 H10         -1.7270    -2.0220     1.2890 ho         1 5TX       0.365000
@<TRIPOS>BOND
     1     1     2 1   
     2     1    11 1   
     3     1    12 1   
     4     1    14 1   
     5     2     3 1   
     6     2    15 1   
     7     2    16 1   
     8     3     4 1   
     9     3     5 1   
    10     3     9 1   
    11     4    10 2   
    12     4    11 1   
    13     5     6 1   
    14     5     7 1   
    15     5     8 1   
    16     9    17 1   
    17     9    18 1   
    18     9    19 1   
    19    11    13 1   
    20    12    20 1   
    21    13    21 1   
@<TRIPOS>SUBSTRUCTURE
     1 5TX         1 TEMP              0 ****  ****    0 ROOT
