@<TRIPOS>MOLECULE
5TY
   27    28     1     0     0
SMALL
bcc


@<TRIPOS>ATOM
      1 C5           0.0000     0.0000     0.0000 ca         1 5TY       0.560100
      2 C8           1.4600     0.0000     0.0000 cc         1 5TY      -0.305800
      3 C10         -2.0670     0.0010     1.2590 ca         1 5TY       0.570200
      4 C15         -2.0650    -0.0180    -3.5180 c3         1 5TY       0.210100
      5 C1          -0.6710     0.0010     1.2490 ca         1 5TY      -0.490200
      6 C2           0.1310     0.0010     2.4720 c          1 5TY       0.644100
      7 C3          -2.0420    -0.0050    -1.0550 ca         1 5TY       0.754900
      8 N4          -0.7200    -0.0060    -1.1190 nb         1 5TY      -0.708000
      9 N6           1.4760     0.0010     2.3740 n          1 5TY       0.064000
     10 N7          -2.7020     0.0000     0.1000 nb         1 5TY      -0.720000
     11 C9           2.1180     0.0000     1.1730 cd         1 5TY      -0.112400
     12 N11         -2.7640    -0.0110    -2.2310 nh         1 5TY      -0.441300
     13 O12         -0.4090     0.0020     3.5640 o          1 5TY      -0.685500
     14 C14         -4.2280    -0.0110    -2.1920 c3         1 5TY       0.210100
     15 H1           2.0080    -0.0010    -0.9350 ha         1 5TY       0.133000
     16 H2          -2.6150     0.0050     2.1930 h4         1 5TY       0.001100
     17 H3           2.0420     0.8860     4.1840 h1         1 5TY       0.021700
     18 H4           2.0430    -0.8840     4.1840 h1         1 5TY       0.021700
     19 H5           3.3270     0.0020     3.3500 h1         1 5TY       0.021700
     20 H6          -1.4440    -0.9030    -3.5870 h1         1 5TY       0.011367
     21 H7          -1.4430     0.8660    -3.5970 h1         1 5TY       0.011367
     22 H8          -2.7900    -0.0220    -4.3230 h1         1 5TY       0.011367
     23 H9           3.2020    -0.0010     1.1620 h4         1 5TY       0.123000
     24 H10         -4.6160    -0.0140    -3.2040 h1         1 5TY       0.011367
     25 H11         -4.5760     0.8760    -1.6750 h1         1 5TY       0.011367
     26 H12         -4.5760    -0.8930    -1.6690 h1         1 5TY       0.011367
     27 C13          2.2740     0.0010     3.6030 c3         1 5TY       0.057300
@<TRIPOS>BOND
     1     1     2 1   
     2     1     5 ar  
     3     1     8 ar  
     4     2    11 2   
     5     2    15 1   
     6     3     5 ar  
     7     3    10 ar  
     8     3    16 1   
     9     4    12 1   
    10     4    20 1   
    11     4    21 1   
    12     4    22 1   
    13     5     6 1   
    14     6     9 1   
    15     6    13 2   
    16     7     8 ar  
    17     7    10 ar  
    18     7    12 1   
    19     9    11 1   
    20     9    27 1   
    21    11    23 1   
    22    12    14 1   
    23    14    24 1   
    24    14    25 1   
    25    14    26 1   
    26    17    27 1   
    27    18    27 1   
    28    19    27 1   
@<TRIPOS>SUBSTRUCTURE
     1 5TY         1 TEMP              0 ****  ****    0 ROOT
