@<TRIPOS>MOLECULE
5TZ
   21    22     1     0     0
SMALL
bcc


@<TRIPOS>ATOM
      1 C1           0.0000     0.0000     0.0000 cc         1 5TZ       0.355300
      2 N2          -2.1180     0.0000    -1.1880 nb         1 5TZ      -0.605000
      3 C3          -0.7930    -0.0010    -1.2500 ca         1 5TZ       0.274300
      4 C4          -2.8680    -0.0010    -2.2720 ca         1 5TZ       0.344200
      5 C5          -2.2990    -0.0030    -3.5310 ca         1 5TZ      -0.171300
      6 C6          -0.9040    -0.0030    -3.6510 ca         1 5TZ      -0.086600
      7 C8          -0.2560    -0.0040    -4.9820 c          1 5TZ       0.973200
      8 O1           0.9560    -0.0040    -5.0670 o          1 5TZ      -0.878300
      9 O           -1.0100    -0.0060    -6.0980 o          1 5TZ      -0.878300
     10 C7          -0.1400    -0.0020    -2.4830 ca         1 5TZ      -0.150300
     11 N1           1.3340     0.0000     0.0000 nc         1 5TZ      -0.631000
     12 C2          -0.5730     0.0060     1.2170 cd         1 5TZ      -0.137400
     13 S            0.7050     0.0040     2.4300 ss         1 5TZ      -0.429300
     14 C            1.9200     0.0000     1.1560 cd         1 5TZ       0.566300
     15 N            3.2910    -0.0020     1.3580 nv         1 5TZ      -0.498500
     16 H1          -3.9470    -0.0000    -2.1740 h4         1 5TZ      -0.038900
     17 H2          -2.9250    -0.0030    -4.4150 ha         1 5TZ       0.134000
     18 H4           0.9420    -0.0020    -2.5320 ha         1 5TZ       0.145000
     19 H5          -1.6370     0.0090     1.4170 h4         1 5TZ       0.175000
     20 H6           3.6590    -0.0010     2.2890 hn         1 5TZ       0.269300
     21 H7           3.9120    -0.0040     0.5740 hn         1 5TZ       0.269300
@<TRIPOS>BOND
     1     1     3 1   
     2     1    11 1   
     3     1    12 2   
     4     2     3 ar  
     5     2     4 ar  
     6     3    10 ar  
     7     4     5 ar  
     8     4    16 1   
     9     5     6 ar  
    10     5    17 1   
    11     6     7 1   
    12     6    10 ar  
    13     7     8 1   
    14     7     9 1   
    15    10    18 1   
    16    11    14 2   
    17    12    13 1   
    18    12    19 1   
    19    13    14 1   
    20    14    15 1   
    21    15    20 1   
    22    15    21 1   
@<TRIPOS>SUBSTRUCTURE
     1 5TZ         1 TEMP              0 ****  ****    0 ROOT
