@<TRIPOS>MOLECULE
5U1
   29    30     1     0     0
SMALL
bcc


@<TRIPOS>ATOM
      1 N3           0.0000     0.0000     0.0000 nv         1 5U1      -0.527800
      2 C4           1.3810     0.0000     0.0000 cc         1 5U1       0.436700
      3 N2           2.1460     0.0000     1.0640 n2         1 5U1      -0.693100
      4 N            3.4840    -0.0010     0.6460 na         1 5U1       0.601200
      5 C2           4.6290    -0.0010     1.3340 ca         1 5U1      -0.152300
      6 N1           2.1790    -0.0050    -1.1090 na         1 5U1       0.120000
      7 C3           3.4920    -0.0000    -0.6890 ca         1 5U1       0.208000
      8 N4           4.6330    -0.0010    -1.3680 nb         1 5U1      -0.639000
      9 C5           5.7980    -0.0020    -0.7370 ca         1 5U1       0.713600
     10 C1           5.8180    -0.0020     0.6600 ca         1 5U1      -0.179600
     11 C            7.1250    -0.0020     1.4080 c3         1 5U1       0.072200
     12 O            6.9580    -0.0030    -1.4390 os         1 5U1      -0.373100
     13 C6           6.8530    -0.0030    -2.8640 c3         1 5U1       0.161100
     14 C8           8.0630     0.7170    -3.4640 c3         1 5U1      -0.010600
     15 C7           6.8150    -1.4460    -3.3730 c3         1 5U1      -0.010600
     16 H31N        -0.5000     0.8550     0.1410 hn         1 5U1       0.311800
     17 H32N        -0.5000    -0.8590    -0.1130 hn         1 5U1       0.311800
     18 H1           1.8650    -0.0070    -2.0590 hn         1 5U1       0.182700
     19 H2           4.6150    -0.0010     2.4170 h4         1 5U1       0.184000
     20 HC1          7.6760    -0.9040     1.1720 hc         1 5U1       0.037033
     21 HC2          7.7080     0.8640     1.1180 hc         1 5U1       0.037033
     22 HC3          6.9310     0.0340     2.4740 hc         1 5U1       0.037033
     23 H6           5.9450     0.5090    -3.1600 h1         1 5U1       0.035700
     24 H81C         7.9780     0.7250    -4.5440 hc         1 5U1       0.022533
     25 H82C         8.0960     1.7350    -3.0960 hc         1 5U1       0.022533
     26 H83C         8.9700     0.2000    -3.1770 hc         1 5U1       0.022533
     27 H71C         6.8680    -1.4490    -4.4550 hc         1 5U1       0.022533
     28 H72C         7.6580    -1.9940    -2.9680 hc         1 5U1       0.022533
     29 H73C         5.8930    -1.9170    -3.0550 hc         1 5U1       0.022533
@<TRIPOS>BOND
     1     1     2 1   
     2     1    16 1   
     3     1    17 1   
     4     2     3 2   
     5     2     6 1   
     6     3     4 1   
     7     4     5 1   
     8     4     7 2   
     9     5    10 ar  
    10     5    19 1   
    11     6     7 1   
    12     6    18 1   
    13     7     8 ar  
    14     8     9 ar  
    15     9    10 ar  
    16     9    12 1   
    17    10    11 1   
    18    11    20 1   
    19    11    21 1   
    20    11    22 1   
    21    12    13 1   
    22    13    14 1   
    23    13    15 1   
    24    13    23 1   
    25    14    24 1   
    26    14    25 1   
    27    14    26 1   
    28    15    27 1   
    29    15    28 1   
    30    15    29 1   
@<TRIPOS>SUBSTRUCTURE
     1 5U1         1 TEMP              0 ****  ****    0 ROOT
