@<TRIPOS>MOLECULE
5U2
   49    51     1     0     0
SMALL
bcc


@<TRIPOS>ATOM
      1 C4           0.0000     0.0000     0.0000 cc         1 5U2      -0.139400
      2 C6          -0.0450    -0.0070     2.3510 c          1 5U2       0.587700
      3 C8          -2.1540     0.0020     1.1440 c3         1 5U2       0.048300
      4 C10          3.5960    -1.0840    -2.8310 ca         1 5U2       0.201100
      5 N12          3.4200    -0.5760    -6.0420 nq         1 5U2      -0.534600
      6 C13          3.6190    -1.8310    -7.6660 cy         1 5U2       0.147100
      7 C15          2.1100     0.0030    -1.2830 ca         1 5U2       0.054200
      8 C17          2.7150     1.0950    -3.3390 ca         1 5U2       0.201100
      9 C20          4.4220    -3.2350    -2.2460 c3         1 5U2       0.242700
     10 C22          1.7960     3.2480    -3.7600 c3         1 5U2       0.242700
     11 C24          4.0280    -0.3760    -7.3760 cy         1 5U2       0.112800
     12 C1           1.3610    -0.0130     2.3920 cc         1 5U2      -0.219400
     13 C2           2.0640     0.0000     1.2260 cd         1 5U2      -0.022000
     14 C3           1.3650     0.0000     0.0000 cd         1 5U2      -0.127200
     15 N5          -0.6890    -0.0020     1.1680 n          1 5U2       0.125000
     16 O7          -0.6840    -0.0080     3.3900 o          1 5U2      -0.704500
     17 C9           2.0820    -0.0190     3.7150 c3         1 5U2       0.089100
     18 C14          2.9020    -1.0880    -1.6330 ca         1 5U2      -0.247500
     19 C16          2.0180     1.0960    -2.1410 ca         1 5U2      -0.247500
     20 C18          3.5020     0.0060    -3.6850 ca         1 5U2      -0.165300
     21 O19          4.3730    -2.1460    -3.1710 os         1 5U2      -0.303900
     22 O21          2.6260     2.1610    -4.1770 os         1 5U2      -0.303900
     23 C23          3.6350    -2.0360    -6.1410 cy         1 5U2       0.112800
     24 O25          4.6190    -2.5820    -8.3580 oh         1 5U2      -0.574800
     25 H1          -0.5370     0.0040    -0.9410 h4         1 5U2       0.135000
     26 H2          -2.5180     0.9480     1.5260 h1         1 5U2       0.025033
     27 H3          -2.4980    -0.1320     0.1260 h1         1 5U2       0.025033
     28 H4          -2.5270    -0.8050     1.7610 h1         1 5U2       0.025033
     29 H6           2.6260    -1.9110    -8.0900 h1         1 5U2       0.028700
     30 H7           5.0340    -4.0300    -2.6560 h1         1 5U2      -0.001800
     31 H8           4.8510    -2.8960    -1.3110 h1         1 5U2      -0.001800
     32 H9           3.4190    -3.6050    -2.0700 h1         1 5U2      -0.001800
     33 H10          2.1470     3.6250    -2.8070 h1         1 5U2      -0.001800
     34 H11          1.8380     4.0390    -4.4990 h1         1 5U2      -0.001800
     35 H12          0.7740     2.9030    -3.6570 h1         1 5U2      -0.001800
     36 H13          3.4940     0.3450    -7.9830 h1         1 5U2       0.035450
     37 H14          5.1010    -0.2340    -7.3370 h1         1 5U2       0.035450
     38 H15          3.1470    -0.0020     1.2390 ha         1 5U2       0.115000
     39 H16          1.7230     0.8010     4.3250 hc         1 5U2       0.010033
     40 H17          1.8940    -0.9570     4.2240 hc         1 5U2       0.010033
     41 H18          3.1460     0.0940     3.5470 hc         1 5U2       0.010033
     42 H19          4.5160     1.0280    -5.2540 h1         1 5U2       0.023700
     43 H20          5.1650    -0.5750    -4.8810 h1         1 5U2       0.023700
     44 H21          2.9750    -1.9400    -0.9670 ha         1 5U2       0.128000
     45 H22          1.4030     1.9470    -1.8720 ha         1 5U2       0.128000
     46 H23          4.6000    -2.3510    -5.7640 h1         1 5U2       0.035450
     47 H24          2.7930    -2.6160    -5.7810 h1         1 5U2       0.035450
     48 H25          4.2300    -3.0170    -9.0990 ho         1 5U2       0.388000
     49 C11          4.2590     0.0100    -4.9880 c3         1 5U2       0.218100
@<TRIPOS>BOND
     1     1    14 2   
     2     1    15 1   
     3     1    25 1   
     4     2    12 1   
     5     2    15 1   
     6     2    16 2   
     7     3    15 1   
     8     3    26 1   
     9     3    27 1   
    10     3    28 1   
    11     4    18 ar  
    12     4    20 ar  
    13     4    21 1   
    14     5    11 1   
    15     5    23 1   
    16     5    49 1   
    17     6    11 1   
    18     6    23 1   
    19     6    24 1   
    20     6    29 1   
    21     7    14 1   
    22     7    18 ar  
    23     7    19 ar  
    24     8    19 ar  
    25     8    20 ar  
    26     8    22 1   
    27     9    21 1   
    28     9    30 1   
    29     9    31 1   
    30     9    32 1   
    31    10    22 1   
    32    10    33 1   
    33    10    34 1   
    34    10    35 1   
    35    11    36 1   
    36    11    37 1   
    37    12    13 2   
    38    12    17 1   
    39    13    14 1   
    40    13    38 1   
    41    17    39 1   
    42    17    40 1   
    43    17    41 1   
    44    18    44 1   
    45    19    45 1   
    46    20    49 1   
    47    23    46 1   
    48    23    47 1   
    49    24    48 1   
    50    42    49 1   
    51    43    49 1   
@<TRIPOS>SUBSTRUCTURE
     1 5U2         1 TEMP              0 ****  ****    0 ROOT
