@<TRIPOS>MOLECULE
molecule
   49    51     1     0     0
SMALL
bcc


@<TRIPOS>ATOM
      1 C4           0.0000     0.0000     0.0000 cc         1 5U2       0.010600
      2 C6          -0.0450    -0.0070     2.3510 c          1 5U2       0.684700
      3 C8          -2.1540     0.0020     1.1440 c3         1 5U2       0.083300
      4 C10          3.5960    -1.0840    -2.8310 ca         1 5U2       0.184600
      5 N12          3.4200    -0.5760    -6.0420 nq         1 5U2      -0.659600
      6 C13          3.6190    -1.8310    -7.6660 cy         1 5U2       0.102100
      7 C15          2.1100     0.0030    -1.2830 ca         1 5U2       0.035200
      8 C17          2.7150     1.0950    -3.3390 ca         1 5U2       0.184600
      9 C20          4.4220    -3.2350    -2.2460 c3         1 5U2       0.128200
     10 C22          1.7960     3.2480    -3.7600 c3         1 5U2       0.128200
     11 C24          4.0280    -0.3760    -7.3760 cy         1 5U2       0.103800
     12 C1           1.3610    -0.0130     2.3920 cd         1 5U2      -0.212400
     13 C2           2.0640     0.0000     1.2260 cc         1 5U2      -0.042000
     14 C3           1.3650     0.0000     0.0000 cc         1 5U2      -0.145200
     15 N5          -0.6890    -0.0020     1.1680 n          1 5U2      -0.315000
     16 O7          -0.6840    -0.0080     3.3900 o          1 5U2      -0.655500
     17 C9           2.0820    -0.0190     3.7150 c3         1 5U2      -0.023900
     18 C14          2.9020    -1.0880    -1.6330 ca         1 5U2      -0.248500
     19 C16          2.0180     1.0960    -2.1410 ca         1 5U2      -0.248500
     20 C18          3.5020     0.0060    -3.6850 ca         1 5U2      -0.134300
     21 O19          4.3730    -2.1460    -3.1710 os         1 5U2      -0.322900
     22 O21          2.6260     2.1610    -4.1770 os         1 5U2      -0.322900
     23 C23          3.6350    -2.0360    -6.1410 cy         1 5U2       0.103800
     24 O25          4.6190    -2.5820    -8.3580 oh         1 5U2      -0.597800
     25 H1          -0.5370     0.0040    -0.9410 h4         1 5U2       0.160000
     26 H2          -2.5180     0.9480     1.5260 h1         1 5U2       0.056367
     27 H3          -2.4980    -0.1320     0.1260 h1         1 5U2       0.056367
     28 H4          -2.5270    -0.8050     1.7610 h1         1 5U2       0.056367
     29 H6           2.6260    -1.9110    -8.0900 h1         1 5U2       0.062700
     30 H7           5.0340    -4.0300    -2.6560 h1         1 5U2       0.042533
     31 H8           4.8510    -2.8960    -1.3110 h1         1 5U2       0.042533
     32 H9           3.4190    -3.6050    -2.0700 h1         1 5U2       0.042533
     33 H10          2.1470     3.6250    -2.8070 h1         1 5U2       0.042533
     34 H11          1.8380     4.0390    -4.4990 h1         1 5U2       0.042533
     35 H12          0.7740     2.9030    -3.6570 h1         1 5U2       0.042533
     36 H13          3.4940     0.3450    -7.9830 h1         1 5U2       0.065950
     37 H14          5.1010    -0.2340    -7.3370 h1         1 5U2       0.065950
     38 H15          3.1470    -0.0020     1.2390 ha         1 5U2       0.143000
     39 H16          1.7230     0.8010     4.3250 hc         1 5U2       0.047033
     40 H17          1.8940    -0.9570     4.2240 hc         1 5U2       0.047033
     41 H18          3.1460     0.0940     3.5470 hc         1 5U2       0.047033
     42 H19          4.5160     1.0280    -5.2540 h1         1 5U2       0.053700
     43 H20          5.1650    -0.5750    -4.8810 h1         1 5U2       0.053700
     44 H21          2.9750    -1.9400    -0.9670 ha         1 5U2       0.140000
     45 H22          1.4030     1.9470    -1.8720 ha         1 5U2       0.140000
     46 H23          4.6000    -2.3510    -5.7640 h1         1 5U2       0.065950
     47 H24          2.7930    -2.6160    -5.7810 h1         1 5U2       0.065950
     48 H25          4.2300    -3.0170    -9.0990 ho         1 5U2       0.400000
     49 C11          4.2590     0.0100    -4.9880 c3         1 5U2       0.194100
@<TRIPOS>BOND
     1    24     6 1
     2     9    21 1
     3     6    11 1
     4     6    23 1
     5    11     5 1
     6    21     4 1
     7    23     5 1
     8    18     4 ar
     9    18     7 ar
    10     4    20 ar
    11     5    49 1
    12     7    14 1
    13     7    19 ar
    14    14    13 1
    15    14     1 2
    16    13    12 2
    17     1    15 1
    18    20    49 1
    19    20     8 ar
    20    12    17 1
    21    12     2 1
    22    15     2 1
    23    15     3 1
    24     2    16 2
    25    19     8 ar
    26     8    22 1
    27    22    10 1
    28     1    25 1
    29     3    26 1
    30     3    27 1
    31     3    28 1
    32     6    29 1
    33     9    30 1
    34     9    31 1
    35     9    32 1
    36    10    33 1
    37    10    34 1
    38    10    35 1
    39    11    36 1
    40    11    37 1
    41    13    38 1
    42    17    39 1
    43    17    40 1
    44    17    41 1
    45    49    42 1
    46    49    43 1
    47    18    44 1
    48    19    45 1
    49    23    46 1
    50    23    47 1
    51    24    48 1
@<TRIPOS>SUBSTRUCTURE
     1 5U2         1 TEMP              0 ****  ****    0 ROOT
