@<TRIPOS>MOLECULE
5U3
   52    54     1     0     0
SMALL
bcc


@<TRIPOS>ATOM
      1 C4           1.5310     0.0000     0.0000 c3         1 5U3       0.008700
      2 C6           0.0000     0.0000     0.0000 c3         1 5U3      -0.021100
      3 C8           2.8000    -1.0470    -1.7950 cc         1 5U3      -0.100400
      4 C10          4.1270    -1.9430    -3.6780 cd         1 5U3       0.452100
      5 C17          5.5470    -0.2340    -7.6680 c3         1 5U3      -0.046600
      6 C20          2.9330    -3.4660    -2.0010 cd         1 5U3      -0.117100
      7 C24          1.9570    -5.0100    -0.6200 cc         1 5U3       0.569200
      8 C26          2.1340    -3.5820    -0.8530 cc         1 5U3      -0.458900
      9 C2           2.0400     0.0000     1.4430 c3         1 5U3      -0.091700
     10 C3           1.5310     1.2500     2.1640 c3         1 5U3       0.003900
     11 N7           2.0190    -1.1970    -0.6890 n          1 5U3       0.092000
     12 C9           3.2750    -2.1250    -2.4760 cd         1 5U3      -0.190000
     13 C11          4.5260    -0.7110    -4.2330 cd         1 5U3      -0.298300
     14 C12          5.2900    -0.9730    -5.3150 cc         1 5U3      -0.228600
     15 N13          5.3770    -2.3140    -5.4500 na         1 5U3       0.504400
     16 C14          6.1150    -3.0270    -6.4950 c3         1 5U3       0.003600
     17 N15          4.6460    -2.9050    -4.4110 nc         1 5U3      -0.682800
     18 C16          5.9310     0.0510    -6.2160 c3         1 5U3       0.259100
     19 C18          7.4520    -0.0210    -6.0670 c3         1 5U3      -0.046600
     20 O19          5.4790     1.3570    -5.8500 oh         1 5U3      -0.578800
     21 N21          3.2270    -4.7230    -2.4140 na         1 5U3       0.495400
     22 N23          2.6310    -5.6460    -1.5480 nd         1 5U3      -0.764800
     23 N25          1.2310    -5.5940     0.4190 nv         1 5U3      -0.504500
     24 C27          1.6800    -2.4080    -0.2110 c          1 5U3       0.674100
     25 O28          0.9860    -2.4920     0.7880 o          1 5U3      -0.728500
     26 H1           1.8920     0.8840    -0.5110 h1         1 5U3       0.035700
     27 H2          -0.3610     1.0210     0.0360 hc         1 5U3       0.020367
     28 H3          -0.3610    -0.5410     0.8660 hc         1 5U3       0.020367
     29 H4          -0.3610    -0.4790    -0.9020 hc         1 5U3       0.020367
     30 H5           3.0480    -0.0500    -2.1400 h4         1 5U3       0.135000
     31 H6           6.2520    -0.9360    -8.0970 hc         1 5U3       0.018200
     32 H7           4.5500    -0.6570    -7.7010 hc         1 5U3       0.018200
     33 H8           5.5660     0.6890    -8.2340 hc         1 5U3       0.018200
     34 H9           3.9310    -0.9860     1.1780 hc         1 5U3       0.004200
     35 H10          3.9310     0.2620     2.4310 hc         1 5U3       0.004200
     36 H11          3.9320     0.7230     0.7230 hc         1 5U3       0.004200
     37 H12          1.6790    -0.8840     1.9530 hc         1 5U3       0.083700
     38 H13          0.4760     1.1360     2.3820 hc         1 5U3       0.004200
     39 H14          2.0780     1.3820     3.0890 hc         1 5U3       0.004200
     40 H15          1.6770     2.1170     1.5310 hc         1 5U3       0.004200
     41 H16          4.2670     0.2710    -3.8570 ha         1 5U3       0.147000
     42 H17          5.6070    -2.9050    -7.4440 h1         1 5U3       0.026033
     43 H18          7.1180    -2.6240    -6.5680 h1         1 5U3       0.026033
     44 H19          6.1670    -4.0800    -6.2460 h1         1 5U3       0.026033
     45 H20          7.8650    -0.6290    -6.8640 hc         1 5U3       0.018200
     46 H21          7.7010    -0.4640    -5.1100 hc         1 5U3       0.018200
     47 H22          7.8690     0.9770    -6.1220 hc         1 5U3       0.018200
     48 H23          5.8360     1.9920    -6.4490 ho         1 5U3       0.398000
     49 H24          3.7950    -4.9540    -3.2050 hn         1 5U3       0.161700
     50 H25          0.7570    -5.0170     1.0850 hn         1 5U3       0.278300
     51 H26          1.1810    -6.5910     0.4960 hn         1 5U3       0.278300
     52 C1           3.5700    -0.0000     1.4430 c3         1 5U3       0.003900
@<TRIPOS>BOND
     1     1     2 1   
     2     1     9 1   
     3     1    11 1   
     4     1    26 1   
     5     2    27 1   
     6     2    28 1   
     7     2    29 1   
     8     3    11 1   
     9     3    12 2   
    10     3    30 1   
    11     4    12 1   
    12     4    13 1   
    13     4    17 2   
    14     5    18 1   
    15     5    31 1   
    16     5    32 1   
    17     5    33 1   
    18     6     8 2   
    19     6    12 1   
    20     6    21 1   
    21     7     8 1   
    22     7    22 2   
    23     7    23 1   
    24     8    24 1   
    25     9    10 1   
    26     9    37 1   
    27     9    52 1   
    28    10    38 1   
    29    10    39 1   
    30    10    40 1   
    31    11    24 1   
    32    13    14 2   
    33    13    41 1   
    34    14    15 1   
    35    14    18 1   
    36    15    16 1   
    37    15    17 1   
    38    16    42 1   
    39    16    43 1   
    40    16    44 1   
    41    18    19 1   
    42    18    20 1   
    43    19    45 1   
    44    19    46 1   
    45    19    47 1   
    46    20    48 1   
    47    21    22 1   
    48    21    49 1   
    49    23    50 1   
    50    23    51 1   
    51    24    25 2   
    52    34    52 1   
    53    35    52 1   
    54    36    52 1   
@<TRIPOS>SUBSTRUCTURE
     1 5U3         1 TEMP              0 ****  ****    0 ROOT
