@<TRIPOS>MOLECULE
molecule
   52    54     1     0     0
SMALL
bcc


@<TRIPOS>ATOM
      1 C4           1.5310     0.0000     0.0000 c3         1 5U3       0.112700
      2 C6           0.0000     0.0000     0.0000 c3         1 5U3      -0.104100
      3 C8           2.8000    -1.0470    -1.7950 cc         1 5U3       0.051600
      4 C10          4.1270    -1.9430    -3.6780 cc         1 5U3       0.420100
      5 C17          5.5470    -0.2340    -7.6680 c3         1 5U3      -0.124600
      6 C20          2.9330    -3.4660    -2.0010 cc         1 5U3       0.058900
      7 C24          1.9570    -5.0100    -0.6200 cd         1 5U3       0.679200
      8 C26          2.1340    -3.5820    -0.8530 cd         1 5U3      -0.426900
      9 C2           2.0400     0.0000     1.4430 c3         1 5U3      -0.097700
     10 C3           1.5310     1.2500     2.1640 c3         1 5U3      -0.087600
     11 N7           2.0190    -1.1970    -0.6890 n          1 5U3      -0.332000
     12 C9           3.2750    -2.1250    -2.4760 cc         1 5U3      -0.215000
     13 C11          4.5260    -0.7110    -4.2330 cc         1 5U3      -0.316300
     14 C12          5.2900    -0.9730    -5.3150 cd         1 5U3      -0.052600
     15 N13          5.3770    -2.3140    -5.4500 na         1 5U3       0.071400
     16 C14          6.1150    -3.0270    -6.4950 c3         1 5U3       0.060600
     17 N15          4.6460    -2.9050    -4.4110 nd         1 5U3      -0.534800
     18 C16          5.9310     0.0510    -6.2160 c3         1 5U3       0.221100
     19 C18          7.4520    -0.0210    -6.0670 c3         1 5U3      -0.124600
     20 O19          5.4790     1.3570    -5.8500 oh         1 5U3      -0.592800
     21 N21          3.2270    -4.7230    -2.4140 na         1 5U3      -0.013600
     22 N23          2.6310    -5.6460    -1.5480 nc         1 5U3      -0.592800
     23 N25          1.2310    -5.5940     0.4190 nv         1 5U3      -0.999500
     24 C27          1.6800    -2.4080    -0.2110 c          1 5U3       0.748100
     25 O28          0.9860    -2.4920     0.7880 o          1 5U3      -0.676500
     26 H1           1.8920     0.8840    -0.5110 h1         1 5U3       0.057700
     27 H2          -0.3610     1.0210     0.0360 hc         1 5U3       0.050700
     28 H3          -0.3610    -0.5410     0.8660 hc         1 5U3       0.050700
     29 H4          -0.3610    -0.4790    -0.9020 hc         1 5U3       0.050700
     30 H5           3.0480    -0.0500    -2.1400 h4         1 5U3       0.165000
     31 H6           6.2520    -0.9360    -8.0970 hc         1 5U3       0.048033
     32 H7           4.5500    -0.6570    -7.7010 hc         1 5U3       0.048033
     33 H8           5.5660     0.6890    -8.2340 hc         1 5U3       0.048033
     34 H9           3.9310    -0.9860     1.1780 hc         1 5U3       0.035033
     35 H10          3.9310     0.2620     2.4310 hc         1 5U3       0.035033
     36 H11          3.9320     0.7230     0.7230 hc         1 5U3       0.035033
     37 H12          1.6790    -0.8840     1.9530 hc         1 5U3       0.098700
     38 H13          0.4760     1.1360     2.3820 hc         1 5U3       0.035033
     39 H14          2.0780     1.3820     3.0890 hc         1 5U3       0.035033
     40 H15          1.6770     2.1170     1.5310 hc         1 5U3       0.035033
     41 H16          4.2670     0.2710    -3.8570 ha         1 5U3       0.165000
     42 H17          5.6070    -2.9050    -7.4440 h1         1 5U3       0.055033
     43 H18          7.1180    -2.6240    -6.5680 h1         1 5U3       0.055033
     44 H19          6.1670    -4.0800    -6.2460 h1         1 5U3       0.055033
     45 H20          7.8650    -0.6290    -6.8640 hc         1 5U3       0.048033
     46 H21          7.7010    -0.4640    -5.1100 hc         1 5U3       0.048033
     47 H22          7.8690     0.9770    -6.1220 hc         1 5U3       0.048033
     48 H23          5.8360     1.9920    -6.4490 ho         1 5U3       0.411000
     49 H24          3.7950    -4.9540    -3.2050 hn         1 5U3       0.346700
     50 H25          0.7570    -5.0170     1.0850 hn         1 5U3       0.449300
     51 H26          1.1810    -6.5910     0.4960 hn         1 5U3       0.449300
     52 C1           3.5700    -0.0000     1.4430 c3         1 5U3      -0.087600
@<TRIPOS>BOND
     1     5    18 1
     2    22    21 1
     3    22     7 2
     4    16    15 1
     5    21     6 1
     6    23     7 1
     7     7     8 1
     8    15    17 1
     9    15    14 1
    10    17     4 2
    11    18    14 1
    12    18    20 1
    13    18    19 1
    14    14    13 2
    15     6     8 2
    16     6    12 1
    17     4    13 1
    18     4    12 1
    19     8    24 1
    20    12     3 2
    21    24    25 2
    22    24    11 1
    23     3    11 1
    24     2     1 1
    25    11     1 1
    26     1     9 1
    27     9    10 1
    28     9    52 1
    29     1    26 1
    30     2    27 1
    31     2    28 1
    32     2    29 1
    33     3    30 1
    34     5    31 1
    35     5    32 1
    36     5    33 1
    37    52    34 1
    38    52    35 1
    39    52    36 1
    40     9    37 1
    41    10    38 1
    42    10    39 1
    43    10    40 1
    44    13    41 1
    45    16    42 1
    46    16    43 1
    47    16    44 1
    48    19    45 1
    49    19    46 1
    50    19    47 1
    51    20    48 1
    52    21    49 1
    53    23    50 1
    54    23    51 1
@<TRIPOS>SUBSTRUCTURE
     1 5U3         1 TEMP              0 ****  ****    0 ROOT
