@<TRIPOS>MOLECULE
molecule
   40    43     1     0     0
SMALL
bcc


@<TRIPOS>ATOM
      1 C4           0.0000     0.0000     0.0000 ca         1 5U4      -0.113000
      2 C5           1.3830     0.0000     0.0000 ca         1 5U4      -0.132000
      3 C6           2.0740     0.0000     1.1950 ca         1 5U4      -0.103000
      4 C7           1.3800    -0.0000     2.3980 ca         1 5U4       0.019600
      5 C10          3.0850    -1.2510     5.3610 cc         1 5U4      -0.209000
      6 C13          3.6320    -4.7580     6.2790 cd         1 5U4      -0.100300
      7 C17          3.4630     0.0020     6.0190 cc         1 5U4       0.053900
      8 C21          3.6050     2.2740     6.2670 cd         1 5U4       0.677200
      9 C24          2.4040     1.1780     4.1760 c          1 5U4       0.744100
     10 C2          -0.0080    -0.0000     2.3940 ca         1 5U4      -0.059300
     11 C3          -0.6950    -0.0000     1.1960 ca         1 5U4      -0.126000
     12 N8           2.0790    -0.0000     3.6110 n          1 5U4      -0.249200
     13 C9           2.4070    -1.1940     4.1840 cd         1 5U4       0.052600
     14 C11          3.4400    -2.5580     5.9670 cc         1 5U4       0.423100
     15 C12          3.1410    -3.8280     5.4330 cc         1 5U4      -0.350300
     16 N14          4.2170    -4.1160     7.3130 na         1 5U4       0.068400
     17 N16          4.0830    -2.7370     7.1010 nd         1 5U4      -0.537800
     18 N18          4.1190     0.3130     7.1620 na         1 5U4      -0.011600
     19 N20          4.1920     1.7040     7.2900 nc         1 5U4      -0.580800
     20 C23          3.1080     1.2110     5.4010 cd         1 5U4      -0.423900
     21 O25          2.0900     2.2200     3.6280 o          1 5U4      -0.649500
     22 H1          -0.5400     0.0000    -0.9390 ha         1 5U4       0.132000
     23 H2           1.9240     0.0000    -0.9380 ha         1 5U4       0.135000
     24 H3           3.1580     0.0000     1.1950 ha         1 5U4       0.142000
     25 H4           3.5650    -5.8320     6.1530 h4         1 5U4       0.171000
     26 H5           5.2260    -3.9850     9.1400 h1         1 5U4       0.055700
     27 H6           4.1730    -5.3960     8.9660 h1         1 5U4       0.055700
     28 H7           5.7190    -5.3350     8.1090 h1         1 5U4       0.055700
     29 H8          -0.5020    -0.8810     4.2690 hc         1 5U4       0.050033
     30 H9          -0.5100     0.8880     4.2640 hc         1 5U4       0.050033
     31 H10         -1.8310    -0.0050     3.4960 hc         1 5U4       0.050033
     32 H11         -1.7780    -0.0000     1.1920 ha         1 5U4       0.136000
     33 H12          2.1280    -2.1160     3.6870 h4         1 5U4       0.167000
     34 H13          2.6130    -4.0220     4.5070 ha         1 5U4       0.153000
     35 H14          4.4930    -0.3480     7.8130 hn         1 5U4       0.347700
     36 H15          3.3560     3.9940     5.1160 hn         1 5U4       0.448800
     37 H16          3.4840     4.2800     6.8210 hn         1 5U4       0.448800
     38 C1          -0.7660     0.0000     3.6980 c3         1 5U4      -0.051800
     39 N22          3.4780     3.6460     6.0460 nv         1 5U4      -1.005500
     40 C15          4.8770    -4.7490     8.4560 c3         1 5U4       0.063600
@<TRIPOS>BOND
     1    19    18 1   
     2    19     8 2   
     3    40    16 1   
     4    18     7 1   
     5    39     8 1   
     6     8    20 1   
     7    16    17 1   
     8    16     6 1   
     9    17    14 2   
    10     6    15 2   
    11     7    20 2   
    12     7     5 1   
    13    20     9 1   
    14    14    15 1   
    15    14     5 1   
    16     5    13 2   
    17     9    21 2   
    18     9    12 1   
    19     3     2 ar  
    20     3     4 ar  
    21    13    12 1   
    22    12     4 1   
    23     2     1 ar  
    24     4    10 ar  
    25     1    11 ar  
    26    10    11 ar  
    27    10    38 1   
    28     1    22 1   
    29     2    23 1   
    30     3    24 1   
    31     6    25 1   
    32    40    26 1   
    33    40    27 1   
    34    40    28 1   
    35    38    29 1   
    36    38    30 1   
    37    38    31 1   
    38    11    32 1   
    39    13    33 1   
    40    15    34 1   
    41    18    35 1   
    42    39    36 1   
    43    39    37 1   
@<TRIPOS>SUBSTRUCTURE
     1 5U4         1 TEMP              0 ****  ****    0 ROOT
