@<TRIPOS>MOLECULE
5U4
   40    43     1     0     0
SMALL
bcc


@<TRIPOS>ATOM
      1 C4           0.0000     0.0000     0.0000 ca         1 5U4      -0.077000
      2 C5           1.3830     0.0000     0.0000 ca         1 5U4      -0.107000
      3 C6           2.0740     0.0000     1.1950 ca         1 5U4      -0.066000
      4 C7           1.3800    -0.0000     2.3980 ca         1 5U4      -0.128400
      5 C10          3.0850    -1.2510     5.3610 cc         1 5U4      -0.188000
      6 C13          3.6320    -4.7580     6.2790 cd         1 5U4      -0.236300
      7 C17          3.4630     0.0020     6.0190 cc         1 5U4      -0.123100
      8 C21          3.6050     2.2740     6.2670 cd         1 5U4       0.568200
      9 C24          2.4040     1.1780     4.1760 c          1 5U4       0.657100
     10 C2          -0.0080    -0.0000     2.3940 ca         1 5U4      -0.055300
     11 C3          -0.6950    -0.0000     1.1960 ca         1 5U4      -0.101000
     12 N8           2.0790    -0.0000     3.6110 n          1 5U4       0.212800
     13 C9           2.4070    -1.1940     4.1840 cd         1 5U4      -0.108400
     14 C11          3.4400    -2.5580     5.9670 cc         1 5U4       0.456100
     15 C12          3.1410    -3.8280     5.4330 cc         1 5U4      -0.329300
     16 N14          4.2170    -4.1160     7.3130 na         1 5U4       0.493400
     17 N16          4.0830    -2.7370     7.1010 nd         1 5U4      -0.680800
     18 N18          4.1190     0.3130     7.1620 na         1 5U4       0.497400
     19 N20          4.1920     1.7040     7.2900 nc         1 5U4      -0.751800
     20 C23          3.1080     1.2110     5.4010 cd         1 5U4      -0.454900
     21 O25          2.0900     2.2200     3.6280 o          1 5U4      -0.706500
     22 H1          -0.5400     0.0000    -0.9390 ha         1 5U4       0.103000
     23 H2           1.9240     0.0000    -0.9380 ha         1 5U4       0.106000
     24 H3           3.1580     0.0000     1.1950 ha         1 5U4       0.111000
     25 H4           3.5650    -5.8320     6.1530 h4         1 5U4       0.144000
     26 H5           5.2260    -3.9850     9.1400 h1         1 5U4       0.022033
     27 H6           4.1730    -5.3960     8.9660 h1         1 5U4       0.022033
     28 H7           5.7190    -5.3350     8.1090 h1         1 5U4       0.022033
     29 H8          -0.5020    -0.8810     4.2690 hc         1 5U4       0.016033
     30 H9          -0.5100     0.8880     4.2640 hc         1 5U4       0.016033
     31 H10         -1.8310    -0.0050     3.4960 hc         1 5U4       0.016033
     32 H11         -1.7780    -0.0000     1.1920 ha         1 5U4       0.110000
     33 H12          2.1280    -2.1160     3.6870 h4         1 5U4       0.135000
     34 H13          2.6130    -4.0220     4.5070 ha         1 5U4       0.135000
     35 H14          4.4930    -0.3480     7.8130 hn         1 5U4       0.161700
     36 H15          3.3560     3.9940     5.1160 hn         1 5U4       0.277300
     37 H16          3.4840     4.2800     6.8210 hn         1 5U4       0.277300
     38 C1          -0.7660     0.0000     3.6980 c3         1 5U4       0.048200
     39 N22          3.4780     3.6460     6.0460 nv         1 5U4      -0.514500
     40 C15          4.8770    -4.7490     8.4560 c3         1 5U4       0.023600
@<TRIPOS>BOND
     1     1     2 ar  
     2     1    11 ar  
     3     1    22 1   
     4     2     3 ar  
     5     2    23 1   
     6     3     4 ar  
     7     3    24 1   
     8     4    10 ar  
     9     4    12 1   
    10     5     7 1   
    11     5    13 2   
    12     5    14 1   
    13     6    15 2   
    14     6    16 1   
    15     6    25 1   
    16     7    18 1   
    17     7    20 2   
    18     8    19 2   
    19     8    20 1   
    20     8    39 1   
    21     9    12 1   
    22     9    20 1   
    23     9    21 2   
    24    10    11 ar  
    25    10    38 1   
    26    11    32 1   
    27    12    13 1   
    28    13    33 1   
    29    14    15 1   
    30    14    17 2   
    31    15    34 1   
    32    16    17 1   
    33    16    40 1   
    34    18    19 1   
    35    18    35 1   
    36    26    40 1   
    37    27    40 1   
    38    28    40 1   
    39    29    38 1   
    40    30    38 1   
    41    31    38 1   
    42    36    39 1   
    43    37    39 1   
@<TRIPOS>SUBSTRUCTURE
     1 5U4         1 TEMP              0 ****  ****    0 ROOT
