@<TRIPOS>MOLECULE
molecule
   63    66     1     0     0
SMALL
bcc


@<TRIPOS>ATOM
      1 C4           0.0000     0.0000     0.0000 ca         1 5U5      -0.106000
      2 C5           1.3940     0.0000     0.0000 ca         1 5U5      -0.098800
      3 C6           2.1080     0.0000     1.2110 ca         1 5U5       0.055600
      4 C8           3.6680    -0.0000    -0.4120 c          1 5U5       0.713700
      5 N12          3.2290    -0.1610    -3.3130 nu         1 5U5      -0.678400
      6 C13          0.8120     0.1670    -2.9630 ca         1 5U5      -0.057800
      7 C15         -1.0170    -0.6220    -4.3070 ca         1 5U5      -0.147500
      8 C17         -1.2220     1.4410    -3.0950 ca         1 5U5      -0.147500
      9 C20          4.4480     1.9830    -3.1080 ca         1 5U5      -0.150500
     10 C21          5.4250     3.2520    -3.5020 ca         1 5U5      -0.122000
     11 C22          6.2740     2.9730    -4.3230 ca         1 5U5      -0.057300
     12 C24          5.3270     0.5830    -4.3420 ca         1 5U5      -0.150500
     13 C26         -1.2810     0.0030     4.6580 cg         1 5U5      -0.109200
     14 C27         -2.3660     0.2960     5.7550 c          1 5U5       0.628300
     15 N29         -2.0930     0.7900     7.2940 ns         1 5U5      -0.660900
     16 C35         -3.3250     0.3100     8.1180 c3         1 5U5       0.177000
     17 C34         -3.3180     1.6650     8.9220 c3         1 5U5      -0.125100
     18 C2           0.0140     0.0010     2.3970 ca         1 5U5       0.045000
     19 C3           1.4130     0.0010     2.4070 ca         1 5U5      -0.133000
     20 N7           3.4670     0.0000     0.9150 ns         1 5U5      -0.452100
     21 O10          4.7560    -0.0010    -0.9640 o          1 5U5      -0.613500
     22 C9           2.4090    -0.0010    -1.0720 cc         1 5U5      -0.217400
     23 C1          -0.6830     0.0060     1.1810 ca         1 5U5      -0.120000
     24 C11          2.1810    -0.0030    -2.4440 cf         1 5U5       0.314800
     25 C18          0.0570     1.2860    -2.6010 ca         1 5U5      -0.100500
     26 C16         -1.7610     0.4860    -3.9390 ca         1 5U5      -0.129000
     27 C14          0.2640    -0.7880    -3.8250 ca         1 5U5      -0.100500
     28 C19          4.4080     0.8070    -3.4800 ca         1 5U5       0.165600
     29 C23          6.4550     1.6740    -4.9260 ca         1 5U5      -0.122000
     30 N31          8.2280     4.3060    -4.0210 n3         1 5U5      -0.617600
     31 C33          9.3990     3.0520    -4.4200 c3         1 5U5       0.078600
     32 C32          8.5120     5.6040    -4.5760 c3         1 5U5       0.078600
     33 H1          -0.4500     0.1040    -0.9800 ha         1 5U5       0.158000
     34 H2          -1.5780    -1.2120    -5.0210 ha         1 5U5       0.138500
     35 H3          -1.6320     2.4150    -2.8560 ha         1 5U5       0.138500
     36 H4           3.6720     2.4810    -2.5380 ha         1 5U5       0.105500
     37 H5           5.3000     4.3040    -3.2750 ha         1 5U5       0.153500
     38 H6           5.1920    -0.3010    -4.9540 ha         1 5U5       0.105500
     39 H7          -1.2250     1.2640     7.4520 hn         1 5U5       0.350500
     40 H8          -2.8640    -0.3960     8.7990 h1         1 5U5       0.078700
     41 H9          -4.2540    -0.0020     7.6580 h1         1 5U5       0.078700
     42 H10         -4.2920     2.0930     9.1310 hc         1 5U5       0.036367
     43 H11         -2.6350     1.5340     9.7520 hc         1 5U5       0.036367
     44 H12         -2.8050     2.4700     8.4090 hc         1 5U5       0.036367
     45 H13          1.8440     0.1520     3.3900 ha         1 5U5       0.144000
     46 H14          4.1970    -0.0210     1.5990 hn         1 5U5       0.343500
     47 H16         -1.7320    -0.0220     0.9140 ha         1 5U5       0.152000
     48 H17          0.5850     1.8840    -1.8680 ha         1 5U5       0.151500
     49 H18         -2.6460     1.0350    -4.2370 ha         1 5U5       0.146000
     50 H19          0.5150    -1.6330    -4.4550 ha         1 5U5       0.151500
     51 H20          6.9020     1.3120    -5.8440 ha         1 5U5       0.153500
     52 H21          7.2870     3.5280    -6.2780 h1         1 5U5       0.054700
     53 H22          6.6830     4.7220    -5.3180 h1         1 5U5       0.054700
     54 H24         10.1870     3.6500    -4.8620 h1         1 5U5       0.055867
     55 H25          8.9330     2.3600    -5.1110 h1         1 5U5       0.055867
     56 H26          9.3640     2.5410    -3.4650 h1         1 5U5       0.055867
     57 H27          9.5890     5.5040    -4.6270 h1         1 5U5       0.055867
     58 H28          8.1580     5.5140    -5.5960 h1         1 5U5       0.055867
     59 H29          8.6350     6.3370    -3.7870 h1         1 5U5       0.055867
     60 H30          3.8340    -0.9550    -3.3830 hn         1 5U5       0.428800
     61 C25         -0.7070     0.0010     3.6350 ch         1 5U5      -0.034000
     62 C30          7.2670     3.8140    -5.2330 c3         1 5U5       0.074100
     63 O28         -3.7090    -0.0170     5.6410 o          1 5U5      -0.609100
@<TRIPOS>BOND
     1    17    16 1
     2    25     8 ar
     3    25     6 ar
     4     8    26 ar
     5    32    30 1
     6    63    14 2
     7    14    13 1
     8    14    15 1
     9    13    61 3
    10    61    18 1
    11    18    19 ar
    12    18    23 ar
    13    19     3 ar
    14    23     1 ar
    15    16    15 1
    16     3     2 ar
    17     3    20 1
    18     1     2 ar
    19     2    22 1
    20    20     4 1
    21     4    22 1
    22     4    21 2
    23    22    24 2
    24    24     6 1
    25    24     5 1
    26     6    27 ar
    27    26     7 ar
    28     5    28 1
    29    12    29 ar
    30    12    28 ar
    31    29    11 ar
    32    28     9 ar
    33     9    10 ar
    34    11    10 ar
    35    11    62 1
    36    62    30 1
    37    30    31 1
    38    27     7 ar
    39     1    33 1
    40     7    34 1
    41     8    35 1
    42     9    36 1
    43    10    37 1
    44    12    38 1
    45    15    39 1
    46    16    40 1
    47    16    41 1
    48    17    42 1
    49    17    43 1
    50    17    44 1
    51    19    45 1
    52    20    46 1
    53    23    47 1
    54    25    48 1
    55    26    49 1
    56    27    50 1
    57    29    51 1
    58    62    52 1
    59    62    53 1
    60    31    54 1
    61    31    55 1
    62    31    56 1
    63    32    57 1
    64    32    58 1
    65    32    59 1
    66     5    60 1
@<TRIPOS>SUBSTRUCTURE
     1 5U5         1 TEMP              0 ****  ****    0 ROOT
