@<TRIPOS>MOLECULE
5U6
   49    51     1     0     0
SMALL
bcc


@<TRIPOS>ATOM
      1 N3           0.0000     0.0000     0.0000 nb         1 5U6      -0.612000
      2 C4           1.3180     0.0000     0.0000 ca         1 5U6       0.484200
      3 C5           1.2740     0.0000     2.4170 ca         1 5U6       0.045200
      4 C6           2.0100     0.0000     1.2080 ca         1 5U6      -0.297900
      5 C7           3.4740    -0.0000     1.2840 c          1 5U6       0.626100
      6 C10          2.0110    -0.0000     3.6860 cc         1 5U6      -0.088400
      7 C13          0.5330    -1.1630     6.9480 ca         1 5U6      -0.156000
      8 C17          1.2130    -1.1690     5.7420 ca         1 5U6       0.123100
      9 C20         -0.0060     1.1580     6.6420 ca         1 5U6       0.114100
     10 C21         -0.0730    -0.0040     7.3970 ca         1 5U6      -0.076300
     11 C24         -2.9860    -0.3650     9.7130 c3         1 5U6       0.173100
     12 C26          1.6960    -3.4640     6.1360 c3         1 5U6       0.239700
     13 C18          1.2850    -0.0000     4.9770 ca         1 5U6      -0.032800
     14 C1          -0.1200     0.0000     2.3480 ca         1 5U6      -0.238300
     15 N8           4.0730    -0.0010     2.4920 n          1 5U6       0.076000
     16 C2          -0.7130    -0.0000     1.1150 ca         1 5U6       0.434200
     17 C16         -2.7700     1.0660     7.7720 c3         1 5U6       0.173100
     18 C9           3.3680    -0.0010     3.6580 cd         1 5U6      -0.112400
     19 C12          5.5360    -0.0010     2.5530 c3         1 5U6       0.055300
     20 C19          0.6710     1.1630     5.4340 ca         1 5U6      -0.163000
     21 C14         -0.8110    -0.0040     8.7110 c3         1 5U6       0.215100
     22 O22         -0.6060     2.2930     7.0900 os         1 5U6      -0.307900
     23 N15         -2.2540    -0.1240     8.4620 n3         1 5U6      -0.542600
     24 O11          4.1430    -0.0010     0.2670 o          1 5U6      -0.678500
     25 C23         -0.4960     3.4540     6.2620 c3         1 5U6       0.236700
     26 H1           1.8610     0.0000    -0.9370 h4         1 5U6       0.001100
     27 H2           0.4770    -2.0670     7.5420 ha         1 5U6       0.128000
     28 H3          -2.8820     0.4950    10.3640 h1         1 5U6       0.004867
     29 H4          -2.5820    -1.2410    10.2040 h1         1 5U6       0.004867
     30 H5          -4.0340    -0.5250     9.4920 h1         1 5U6       0.004867
     31 H6           0.6500    -3.7120     6.2690 h1         1 5U6      -0.001300
     32 H7           2.1420    -3.2520     7.1000 h1         1 5U6      -0.001300
     33 H8           2.2100    -4.3000     5.6760 h1         1 5U6      -0.001300
     34 H9          -0.7190     0.0000     3.2510 ha         1 5U6       0.129000
     35 H10         -1.7940    -0.0000     1.0500 h4         1 5U6      -0.022900
     36 H11         -3.8510     1.0820     7.8390 h1         1 5U6       0.004867
     37 H12         -2.3660     1.9570     8.2360 h1         1 5U6       0.004867
     38 H13         -2.4740     1.0360     6.7300 h1         1 5U6       0.004867
     39 H14          3.9090    -0.0010     4.5960 h4         1 5U6       0.131000
     40 H15          5.9210     0.8520     2.0070 h1         1 5U6       0.022367
     41 H16          5.9160    -0.9140     2.1090 h1         1 5U6       0.022367
     42 H17          5.8550     0.0580     3.5860 h1         1 5U6       0.022367
     43 H18          0.7240     2.0710     4.8460 ha         1 5U6       0.129000
     44 H19         -0.6110     0.9210     9.2370 h1         1 5U6       0.014700
     45 H20         -0.4780    -0.8410     9.3120 h1         1 5U6       0.014700
     46 H22         -1.0010     3.2750     5.3210 h1         1 5U6      -0.000967
     47 H23          0.5490     3.6680     6.0770 h1         1 5U6      -0.000967
     48 H24         -0.9540     4.2990     6.7630 h1         1 5U6      -0.000967
     49 O25          1.8100    -2.3090     5.3020 os         1 5U6      -0.303900
@<TRIPOS>BOND
     1     1     2 ar  
     2     1    16 ar  
     3     2     4 ar  
     4     2    26 1   
     5     3     4 ar  
     6     3     6 1   
     7     3    14 ar  
     8     4     5 1   
     9     5    15 1   
    10     5    24 2   
    11     6    13 1   
    12     6    18 2   
    13     7     8 ar  
    14     7    10 ar  
    15     7    27 1   
    16     8    13 ar  
    17     8    49 1   
    18     9    10 ar  
    19     9    20 ar  
    20     9    22 1   
    21    10    21 1   
    22    11    23 1   
    23    11    28 1   
    24    11    29 1   
    25    11    30 1   
    26    12    31 1   
    27    12    32 1   
    28    12    33 1   
    29    12    49 1   
    30    13    20 ar  
    31    14    16 ar  
    32    14    34 1   
    33    15    18 1   
    34    15    19 1   
    35    16    35 1   
    36    17    23 1   
    37    17    36 1   
    38    17    37 1   
    39    17    38 1   
    40    18    39 1   
    41    19    40 1   
    42    19    41 1   
    43    19    42 1   
    44    20    43 1   
    45    21    23 1   
    46    21    44 1   
    47    21    45 1   
    48    22    25 1   
    49    25    46 1   
    50    25    47 1   
    51    25    48 1   
@<TRIPOS>SUBSTRUCTURE
     1 5U6         1 TEMP              0 ****  ****    0 ROOT
