@<TRIPOS>MOLECULE
molecule
   61    63     1     0     0
SMALL
bcc


@<TRIPOS>ATOM
      1 C1           0.0000     0.0000     0.0000 ca         1 5U7      -0.118100
      2 C2           1.3940     0.0000     0.0000 ca         1 5U7      -0.079500
      3 C3           4.2240     0.5400    -0.3810 ca         1 5U7      -0.122000
      4 C4           4.2610    -1.0140    -2.2200 ca         1 5U7      -0.113000
      5 C5          -0.6970     0.0010     1.2080 ca         1 5U7      -0.101000
      6 C6           5.5650     0.8020    -0.5650 ca         1 5U7      -0.115000
      7 C7           5.6180    -0.7470    -2.4050 ca         1 5U7      -0.081300
      8 C8           1.3970     0.0000     2.4110 ca         1 5U7      -0.079500
      9 C9           3.5750    -0.3660    -1.2070 cp         1 5U7      -0.043000
     10 C10          2.0910     0.0000     1.2050 cp         1 5U7      -0.163000
     11 C12          6.2670     0.1610    -1.5760 ca         1 5U7       0.095100
     12 C14         10.5970     0.2980    -1.4850 c3         1 5U7       0.128100
     13 C15         10.7910    -0.0650    -0.0430 c3         1 5U7       0.122100
     14 C16          9.6040     1.3700    -1.6560 c3         1 5U7       0.119100
     15 C17          9.4690    -0.4020     0.6460 c3         1 5U7       0.142100
     16 C18          8.2840     1.0450    -0.9610 c3         1 5U7       0.294900
     17 C19         -2.5750    -0.2130     5.4070 c3         1 5U7       0.112800
     18 C20          9.7280    -0.6020     2.1140 c3         1 5U7       0.150400
     19 O21          0.1510    -0.0600     4.7830 o          1 5U7      -0.549100
     20 O22          8.4800     0.6810     0.4790 os         1 5U7      -0.414600
     21 O23         11.8740     0.7460    -2.0330 oh         1 5U7      -0.602800
     22 O24         11.6430    -1.2080     0.0340 oh         1 5U7      -0.606800
     23 O25         10.1370     2.5920    -1.0960 oh         1 5U7      -0.580800
     24 O26          8.6000    -1.1800     2.7130 oh         1 5U7      -0.595800
     25 O27          7.6890    -0.0040    -1.6070 os         1 5U7      -0.315900
     26 O3          -0.1840     0.1410    -2.3650 o          1 5U7      -0.549100
     27 C02         -0.7760     0.0720    -1.3420 c          1 5U7       0.689200
     28 N1          -2.2410     0.0720    -1.3430 ns         1 5U7      -0.644900
     29 C21         -2.9720     0.0740    -2.6120 c3         1 5U7       0.112800
     30 C01          0.0010     0.0010     2.4130 ca         1 5U7      -0.118100
     31 N           -2.0280    -0.1260     4.0520 ns         1 5U7      -0.644900
     32 H17          1.9360    -0.0010    -0.9380 ha         1 5U7       0.182500
     33 H12          3.6780     1.0410     0.4090 ha         1 5U7       0.187000
     34 H13          3.7550    -1.7210    -2.8660 ha         1 5U7       0.153000
     35 H18         -1.7800     0.0010     1.2080 ha         1 5U7       0.132000
     36 H11          6.0720     1.5100     0.0800 ha         1 5U7       0.163000
     37 H19          1.9390     0.0000     3.3480 ha         1 5U7       0.182500
     38 H16          7.0410    -1.1660    -3.9710 hc         1 5U7       0.048700
     39 H15          5.9960    -2.5310    -3.5560 hc         1 5U7       0.048700
     40 H14          5.3530    -1.1810    -4.5010 hc         1 5U7       0.048700
     41 H2          10.2630    -0.5790    -2.0260 h1         1 5U7       0.064700
     42 H1          11.2560     0.7660     0.4710 h1         1 5U7       0.068700
     43 H3           9.4180     1.5120    -2.7140 h1         1 5U7       0.051700
     44 H            9.0700    -1.3150     0.2220 h1         1 5U7       0.079700
     45 H4           7.6370     1.9120    -1.0180 h2         1 5U7       0.082700
     46 H22         -3.6570    -0.2420     5.3590 h1         1 5U7       0.036200
     47 H20         -2.2610     0.6520     5.9800 h1         1 5U7       0.036200
     48 H21         -2.2110    -1.1140     5.8860 h1         1 5U7       0.036200
     49 H26          9.9340     0.3550     2.5780 h1         1 5U7       0.031700
     50 H27         10.5810    -1.2570     2.2430 h1         1 5U7       0.031700
     51 H8          12.0600     0.2710    -2.8260 ho         1 5U7       0.402000
     52 H9          12.5160    -0.9340     0.2620 ho         1 5U7       0.413000
     53 H7          10.0800     3.2820    -1.7360 ho         1 5U7       0.405000
     54 H10          8.7430    -1.2580     3.6420 ho         1 5U7       0.404000
     55 H6          -2.7420     0.1000    -0.4770 hn         1 5U7       0.308000
     56 H23         -2.7300    -0.8220    -3.1700 h1         1 5U7       0.036200
     57 H24         -2.6910     0.9470    -3.1890 h1         1 5U7       0.036200
     58 H25         -4.0370     0.1000    -2.4140 h1         1 5U7       0.036200
     59 H5          -2.6440    -0.1170     3.2640 hn         1 5U7       0.308000
     60 C11          6.0330    -1.4590    -3.7040 c3         1 5U7      -0.030800
     61 C13         -0.5780    -0.0590     3.8500 c          1 5U7       0.689200
@<TRIPOS>BOND
     1    22    13 1   
     2    24    18 1   
     3    18    15 1   
     4    13    15 1   
     5    13    12 1   
     6    21    12 1   
     7    15    20 1   
     8    12    14 1   
     9    20    16 1   
    10    23    14 1   
    11    14    16 1   
    12    60     7 1   
    13    16    25 1   
    14    25    11 1   
    15     7    11 ar  
    16     7     4 ar  
    17    11     6 ar  
    18     4     9 ar  
    19     6     3 ar  
    20     9     3 ar  
    21     9    10 1   
    22    29    28 1   
    23     2    10 ar  
    24     2     1 ar  
    25    28    27 1   
    26    10     8 ar  
    27    27    26 2   
    28    27     1 1   
    29     1     5 ar  
    30     8    30 ar  
    31     5    30 ar  
    32    30    61 1   
    33    31    61 1   
    34    31    17 1   
    35    61    19 2   
    36     2    32 1   
    37     3    33 1   
    38     4    34 1   
    39     5    35 1   
    40     6    36 1   
    41     8    37 1   
    42    60    38 1   
    43    60    39 1   
    44    60    40 1   
    45    12    41 1   
    46    13    42 1   
    47    14    43 1   
    48    15    44 1   
    49    16    45 1   
    50    17    46 1   
    51    17    47 1   
    52    17    48 1   
    53    18    49 1   
    54    18    50 1   
    55    21    51 1   
    56    22    52 1   
    57    23    53 1   
    58    24    54 1   
    59    28    55 1   
    60    29    56 1   
    61    29    57 1   
    62    29    58 1   
    63    31    59 1   
@<TRIPOS>SUBSTRUCTURE
     1 5U7         1 TEMP              0 ****  ****    0 ROOT
