@<TRIPOS>MOLECULE
5U8
   47    50     1     0     0
SMALL
bcc


@<TRIPOS>ATOM
      1 C8           0.0000     0.0000     0.0000 c3         1 5U8       0.149800
      2 N4           2.8460    -1.5580     8.2180 ns         1 5U8      -0.013400
      3 C2          -2.3630     1.0160    -2.7130 ca         1 5U8      -0.102300
      4 C3          -2.7460     0.1240    -3.6960 ca         1 5U8      -0.064000
      5 C4          -3.1350     0.5880    -4.9390 ca         1 5U8      -0.134000
      6 C5          -3.1400     1.9490    -5.1970 ca         1 5U8       0.102900
      7 C6          -2.7570     2.8420    -4.2120 ca         1 5U8      -0.134000
      8 C1          -1.9380     0.5080    -1.3600 c3         1 5U8       0.213100
      9 C7          -2.3630     2.3740    -2.9730 ca         1 5U8      -0.064000
     10 C9           1.5300     0.0000     0.0000 c3         1 5U8       0.068900
     11 N1           2.7210     0.0000     3.4540 na         1 5U8       0.509600
     12 C10          2.0320    -0.2740     1.3940 cc         1 5U8      -0.315600
     13 C11          2.2960     0.6550     2.3420 cd         1 5U8      -0.239300
     14 N2           2.7200    -1.3720     3.1680 nd         1 5U8      -0.621800
     15 C12          2.3050    -1.5340     1.9380 cc         1 5U8       0.396200
     16 C13          3.0980     0.5880     4.6620 ca         1 5U8       0.341800
     17 C15          2.4980    -2.0830     7.0140 cc         1 5U8       0.328800
     18 C14          3.0120    -0.1440     5.8570 ca         1 5U8       0.046100
     19 C16          3.3010    -0.2850     8.3090 c          1 5U8       0.614100
     20 N3           2.5740    -1.4240     5.8960 nd         1 5U8      -0.494100
     21 C17          3.4020     0.4830     7.0600 ca         1 5U8      -0.178600
     22 C18          3.8560     1.8020     7.0180 ca         1 5U8      -0.139300
     23 O            3.6120     0.2010     9.3810 o          1 5U8      -0.652500
     24 C19          3.9050     2.4420     5.7960 ca         1 5U8       0.394200
     25 N5           3.5350     1.8340     4.6830 nb         1 5U8      -0.564000
     26 N           -0.4890     0.2660    -1.3590 n3         1 5U8      -0.538600
     27 C           -0.1400    -0.8310    -2.2700 c3         1 5U8       0.159100
     28 F           -3.5200     2.4040    -6.4120 f          1 5U8      -0.130900
     29 H1          -0.3610    -0.9660     0.3310 h1         1 5U8       0.010200
     30 H2          -0.3610     0.7700     0.6710 h1         1 5U8       0.010200
     31 H3           2.7660    -2.1170     9.0440 hn         1 5U8       0.185500
     32 H4          -2.7410    -0.9400    -3.4930 ha         1 5U8       0.110500
     33 H5          -3.4340    -0.1110    -5.7090 ha         1 5U8       0.118500
     34 H6          -2.7600     3.9060    -4.4140 ha         1 5U8       0.118500
     35 H7          -2.1810     1.2460    -0.6050 h1         1 5U8       0.013200
     36 H8          -2.4590    -0.4160    -1.1420 h1         1 5U8       0.013200
     37 H9          -2.0630     3.0730    -2.2010 ha         1 5U8       0.110500
     38 H10          1.8910     0.9660    -0.3300 hc         1 5U8       0.024200
     39 H11          1.8910    -0.7690    -0.6720 hc         1 5U8       0.024200
     40 H12          2.1840     1.7280     2.2340 h4         1 5U8       0.159000
     41 H13          2.1960    -2.4830     1.4260 h4         1 5U8       0.004100
     42 H14          2.1390    -3.1050     6.9840 h5         1 5U8       0.009800
     43 H15          4.1620     2.3120     7.9230 ha         1 5U8       0.137000
     44 H16          4.2550     3.4660     5.7490 h4         1 5U8      -0.010900
     45 H18         -0.8600    -1.6330    -2.1630 h1         1 5U8       0.008033
     46 H19          0.8500    -1.2000    -2.0280 h1         1 5U8       0.008033
     47 H20         -0.1510    -0.4700    -3.2920 h1         1 5U8       0.008033
@<TRIPOS>BOND
     1     1    10 1   
     2     1    26 1   
     3     1    29 1   
     4     1    30 1   
     5     2    17 1   
     6     2    19 1   
     7     2    31 1   
     8     3     4 ar  
     9     3     8 1   
    10     3     9 ar  
    11     4     5 ar  
    12     4    32 1   
    13     5     6 ar  
    14     5    33 1   
    15     6     7 ar  
    16     6    28 1   
    17     7     9 ar  
    18     7    34 1   
    19     8    26 1   
    20     8    35 1   
    21     8    36 1   
    22     9    37 1   
    23    10    12 1   
    24    10    38 1   
    25    10    39 1   
    26    11    13 1   
    27    11    14 1   
    28    11    16 1   
    29    12    13 2   
    30    12    15 1   
    31    13    40 1   
    32    14    15 2   
    33    15    41 1   
    34    16    18 ar  
    35    16    25 ar  
    36    17    20 2   
    37    17    42 1   
    38    18    20 1   
    39    18    21 ar  
    40    19    21 1   
    41    19    23 2   
    42    21    22 ar  
    43    22    24 ar  
    44    22    43 1   
    45    24    25 ar  
    46    24    44 1   
    47    26    27 1   
    48    27    45 1   
    49    27    46 1   
    50    27    47 1   
@<TRIPOS>SUBSTRUCTURE
     1 5U8         1 TEMP              0 ****  ****    0 ROOT
