@<TRIPOS>MOLECULE
molecule
   27    28     1     0     0
SMALL
bcc


@<TRIPOS>ATOM
      1 C10          0.0000     0.0000     0.0000 c          1 5U9       0.659100
      2 C13          2.1270     1.3990    -0.1650 cy         1 5U9       0.139300
      3 C15          2.1270     0.0000     1.4090 cy         1 5U9       0.139300
      4 C01         -4.6420    -4.4960     0.5390 c3         1 5U9      -0.176100
      5 O03         -6.2940    -2.8220     0.3300 o          1 5U9      -0.506100
      6 C04         -4.1280    -1.9950     0.2370 cc         1 5U9       0.298800
      7 C05         -4.4860    -0.6880     0.0830 cd         1 5U9      -0.166400
      8 S06         -3.0750     0.2690    -0.0310 ss         1 5U9      -0.044300
      9 C07         -2.0620    -1.1590     0.1380 cd         1 5U9       0.495300
     10 N08         -2.8070    -2.2100     0.2680 nc         1 5U9      -0.674000
     11 N09         -0.6740    -1.1590     0.1380 ns         1 5U9      -0.489400
     12 O11         -0.6060     1.0430    -0.1180 o          1 5U9      -0.561100
     13 C12          1.5070     0.0000     0.0000 cy         1 5U9      -0.196700
     14 N14          3.0930     0.9860     0.8760 nl         1 5U9      -0.772000
     15 H1           2.5850     1.5490    -1.1350 hx         1 5U9       0.135950
     16 H2           1.4690     2.1970     0.1570 hx         1 5U9       0.135950
     17 H3           1.4700     0.4130     2.1640 hx         1 5U9       0.135950
     18 H4           2.5860    -0.9450     1.6720 hx         1 5U9       0.135950
     19 H5          -5.5020    -5.1500     0.6160 hc         1 5U9       0.067367
     20 H6          -4.0340    -4.5930     1.4310 hc         1 5U9       0.067367
     21 H7          -4.0560    -4.7700    -0.3300 hc         1 5U9       0.067367
     22 H8          -5.5030    -0.3160     0.0390 h4         1 5U9       0.216000
     23 H9          -0.1740    -2.0230     0.2130 hn         1 5U9       0.348500
     24 H10          1.9540    -0.7370    -0.6550 hc         1 5U9       0.121700
     25 H11          3.9100     0.5540     0.4920 hn         1 5U9       0.463300
     26 H12          3.2910     1.7200     1.5280 hn         1 5U9       0.463300
     27 C02         -5.1070    -3.0730     0.3650 c          1 5U9       0.495600
@<TRIPOS>BOND
     1     4    27 1
     2     7     6 2
     3     7     8 1
     4    27     6 1
     5    27     5 2
     6     6    10 1
     7     8     9 1
     8    10     9 2
     9     9    11 1
    10    14     3 1
    11    14     2 1
    12    12     1 2
    13    11     1 1
    14     1    13 1
    15     3    13 1
    16     2    13 1
    17     2    15 1
    18     2    16 1
    19     3    17 1
    20     3    18 1
    21     4    19 1
    22     4    20 1
    23     4    21 1
    24     7    22 1
    25    11    23 1
    26    13    24 1
    27    14    25 1
    28    14    26 1
@<TRIPOS>SUBSTRUCTURE
     1 5U9         1 TEMP              0 ****  ****    0 ROOT
