@<TRIPOS>MOLECULE
molecule
   22    24     1     0     0
SMALL
bcc


@<TRIPOS>ATOM
      1 O            0.0000     0.0000     0.0000 o          1 5UB      -0.614500
      2 C            1.2170     0.0000     0.0000 c          1 5UB       0.705100
      3 C3           1.9830     0.0000     1.2540 ca         1 5UB      -0.179600
      4 C4           1.3780     0.0020     2.5110 ca         1 5UB      -0.175300
      5 C5           2.1830     0.0020     3.6330 ca         1 5UB       0.398200
      6 N2           3.5000     0.0010     3.5380 nb         1 5UB      -0.665000
      7 C6           4.1320    -0.0010     2.3730 ca         1 5UB       0.417300
      8 C2           3.3920    -0.0010     1.1750 ca         1 5UB       0.097100
      9 N1           3.9820    -0.0040    -0.0410 nc         1 5UB      -0.602100
     10 C1           3.2810    -0.0050    -1.1370 cd         1 5UB       0.495800
     11 N            1.9230    -0.0080    -1.1570 ns         1 5UB      -0.476400
     12 C7           5.6120    -0.0010     2.3320 cc         1 5UB       0.317300
     13 N3           6.3050    -0.4730     1.3050 nc         1 5UB      -0.637000
     14 C9           7.5890    -0.4170     1.3880 cd         1 5UB       0.436300
     15 S            8.0640     0.2820     2.8730 ss         1 5UB      -0.227300
     16 C8           6.3750     0.4830     3.3350 cd         1 5UB      -0.139400
     17 H1           0.2990     0.0030     2.6050 ha         1 5UB       0.162000
     18 H2           1.7240     0.0040     4.6140 h4         1 5UB       0.031100
     19 H3           3.8080    -0.0120    -2.0830 h5         1 5UB       0.058800
     20 H4           1.4400    -0.0090    -2.0330 hn         1 5UB       0.339500
     21 H5           8.2720    -0.7670     0.6240 h5         1 5UB       0.061100
     22 H6           6.0140     0.9130     4.2610 h4         1 5UB       0.195000
@<TRIPOS>BOND
     1     1     2 2
     2     4     5 ar
     3     4     3 ar
     4     5     6 ar
     5     2     3 1
     6     2    11 1
     7     3     8 ar
     8     6     7 ar
     9    11    10 1
    10     8     7 ar
    11     8     9 1
    12     7    12 1
    13    10     9 2
    14    12    13 1
    15    12    16 2
    16    13    14 2
    17    16    15 1
    18    14    15 1
    19     4    17 1
    20     5    18 1
    21    10    19 1
    22    11    20 1
    23    14    21 1
    24    16    22 1
@<TRIPOS>SUBSTRUCTURE
     1 5UB         1 TEMP              0 ****  ****    0 ROOT
