@<TRIPOS>MOLECULE
5UC
   12    12     1     0     0
SMALL
bcc


@<TRIPOS>ATOM
      1 O2           0.0000     0.0000     0.0000 o          1 5UC      -0.695500
      2 C2           1.2160     0.0000     0.0000 c          1 5UC       0.570500
      3 N3           1.8790     0.0000     1.1710 ns         1 5UC      -0.119500
      4 C4           3.2270     0.0000     1.1890 c          1 5UC       0.616700
      5 O4           3.8280    -0.0000     2.2480 o          1 5UC      -0.640500
      6 N1           1.8780    -0.0060    -1.1710 ns         1 5UC       0.022900
      7 C6           3.2480    -0.0060    -1.1960 cc         1 5UC      -0.106400
      8 C5           3.9390    -0.0010    -0.0360 cd         1 5UC      -0.243800
      9 Cl5          5.6750    -0.0010    -0.0450 cl         1 5UC       0.052600
     10 H1           1.3690    -0.0000     2.0320 hn         1 5UC       0.210500
     11 H2           3.7740    -0.0090    -2.1430 h4         1 5UC       0.139000
     12 H4           1.3660    -0.0100    -2.0310 hn         1 5UC       0.193500
@<TRIPOS>BOND
     1     1     2 2   
     2     2     3 1   
     3     2     6 1   
     4     3     4 1   
     5     3    10 1   
     6     4     5 2   
     7     4     8 1   
     8     6     7 1   
     9     6    12 1   
    10     7     8 2   
    11     7    11 1   
    12     8     9 1   
@<TRIPOS>SUBSTRUCTURE
     1 5UC         1 TEMP              0 ****  ****    0 ROOT
