@<TRIPOS>MOLECULE
molecule
   12    12     1     0     0
SMALL
bcc


@<TRIPOS>ATOM
      1 O2           0.0000     0.0000     0.0000 o          1 5UC      -0.643500
      2 C2           1.2160     0.0000     0.0000 c          1 5UC       0.804500
      3 N3           1.8790     0.0000     1.1710 ns         1 5UC      -0.557500
      4 C4           3.2270     0.0000     1.1890 c          1 5UC       0.706700
      5 O4           3.8280    -0.0000     2.2480 o          1 5UC      -0.593500
      6 N1           1.8780    -0.0060    -1.1710 ns         1 5UC      -0.450100
      7 C6           3.2480    -0.0060    -1.1960 cc         1 5UC       0.036600
      8 C5           3.9390    -0.0010    -0.0360 cd         1 5UC      -0.168800
      9 Cl5          5.6750    -0.0010    -0.0450 cl         1 5UC      -0.047400
     10 H1           1.3690    -0.0000     2.0320 hn         1 5UC       0.371500
     11 H2           3.7740    -0.0090    -2.1430 h4         1 5UC       0.175000
     12 H4           1.3660    -0.0100    -2.0310 hn         1 5UC       0.364500
@<TRIPOS>BOND
     1     9     8 1   
     2     5     4 2   
     3     8     4 1   
     4     8     7 2   
     5     4     3 1   
     6     7     6 1   
     7     3     2 1   
     8     6     2 1   
     9     2     1 2   
    10     3    10 1   
    11     7    11 1   
    12     6    12 1   
@<TRIPOS>SUBSTRUCTURE
     1 5UC         1 TEMP              0 ****  ****    0 ROOT
