@<TRIPOS>MOLECULE
5UD
   29    30     1     0     0
SMALL
bcc


@<TRIPOS>ATOM
      1 F5          0.4150   -0.8990    0.2400 f         1 5UD     -0.129500
      2 C5          1.7080   -0.5410    0.0950 cc        1 5UD     -0.021700
      3 C4          2.5530   -0.5160    1.3150 c         1 5UD      0.702700
      4 O4          2.1640   -0.7950    2.4570 o         1 5UD     -0.571500
      5 N3          3.8890   -0.1460    1.1030 n         1 5UD     -0.580500
      6 C2          4.4180    0.1810   -0.1550 c         1 5UD      0.810500
      7 O2          5.6290    0.4770   -0.2530 o         1 5UD     -0.650500
      8 C6          2.2300   -0.2120   -1.1270 cd        1 5UD      0.000600
      9 N1          3.5490    0.2010   -1.2790 n         1 5UD     -0.371000
     10 C1'         4.0570    0.3890   -2.6360 c3        1 5UD      0.311500
     11 C2'         5.1040    1.5290   -2.7930 c3        1 5UD      0.087100
     12 O2'         4.5960    2.3760   -3.8090 oh        1 5UD     -0.602800
     13 C3'         6.4060    0.8310   -3.2500 c3        1 5UD      0.096100
     14 O3'         6.8910    1.4010   -4.4440 oh        1 5UD     -0.585800
     15 C4'         6.0490   -0.6560   -3.4040 c3        1 5UD      0.066100
     16 O4'         4.6470   -0.8170   -3.1340 os        1 5UD     -0.429600
     17 C5'         6.8470   -1.5500   -2.4560 c3        1 5UD      0.116400
     18 O5'         6.5450   -2.9110   -2.6690 oh        1 5UD     -0.591800
     19 HN3         4.5200   -0.1220    1.8780 hn        1 5UD      0.360500
     20 H6          1.6120   -0.2430   -2.0440 h4        1 5UD      0.184000
     21 H1'         3.1640    0.5890   -3.3070 h2        1 5UD      0.111700
     22 H2'         5.2670    2.1120   -1.8490 h1        1 5UD      0.093700
     23 HO2'        5.2690    3.0540   -3.9650 ho        1 5UD      0.429000
     24 H3'         7.2280    0.9830   -2.4980 h1        1 5UD      0.116700
     25 HO3'        6.2220    1.2630   -5.1300 ho        1 5UD      0.414000
     26 H4'         6.1830   -1.0070   -4.4650 h1        1 5UD      0.090700
     27 H5'1        7.9440   -1.4550   -2.6780 h1        1 5UD      0.066200
     28 H5'2        6.6440   -1.2610   -1.3890 h1        1 5UD      0.066200
     29 HO5'        5.5930   -3.0150   -2.5420 ho        1 5UD      0.409000
@<TRIPOS>BOND
     1    1    2 1   
     2    2    3 1   
     3    2    8 2   
     4    3    4 2   
     5    3    5 1   
     6    5    6 1   
     7    5   19 1   
     8    6    7 2   
     9    6    9 1   
    10    8    9 1   
    11    8   20 1   
    12    9   10 1   
    13   10   11 1   
    14   10   16 1   
    15   10   21 1   
    16   11   12 1   
    17   11   13 1   
    18   11   22 1   
    19   12   23 1   
    20   13   14 1   
    21   13   15 1   
    22   13   24 1   
    23   14   25 1   
    24   15   16 1   
    25   15   17 1   
    26   15   26 1   
    27   17   18 1   
    28   17   27 1   
    29   17   28 1   
    30   18   29 1   
@<TRIPOS>SUBSTRUCTURE
     1 5UD         1 TEMP              0 ****  ****    0 ROOT
