@<TRIPOS>MOLECULE
molecule
   26    26     1     0     0
SMALL
bcc


@<TRIPOS>ATOM
      1 C13          0.0000     0.0000     0.0000 c3         1 5UE      -0.176100
      2 C01          1.5670     1.2550    -7.5080 c3         1 5UE      -0.121100
      3 C02          2.4110     0.0060    -7.2460 c3         1 5UE       0.029500
      4 C03          2.8750     0.0050    -5.8130 c          1 5UE       0.635100
      5 O04          4.0620     0.0040    -5.5600 o          1 5UE      -0.586100
      6 C06          2.4020     0.0030    -3.4900 cc         1 5UE       0.486300
      7 N07          1.6240     0.0020    -2.4560 nd         1 5UE      -0.664000
      8 C08          2.2380     0.0010    -1.2670 cd         1 5UE       0.299800
      9 C09          3.6000     0.0020    -1.3310 cc         1 5UE      -0.158400
     10 S10          4.0820    -0.0060    -2.9720 ss         1 5UE      -0.043300
     11 C11          1.5060     0.0000     0.0000 c          1 5UE       0.494600
     12 O12          2.1140     0.0000     1.0510 o          1 5UE      -0.503100
     13 N14          3.5770     0.0060    -8.1390 nz         1 5UE      -0.795600
     14 H1          -0.3610    -0.8840    -0.5110 hc         1 5UE       0.069367
     15 H2          -0.3610    -0.0010     1.0210 hc         1 5UE       0.069367
     16 H3          -0.3610     0.8850    -0.5100 hc         1 5UE       0.069367
     17 H5           0.5570     1.0890    -7.1520 hc         1 5UE       0.085700
     18 H6           1.5460     1.4600    -8.5710 hc         1 5UE       0.085700
     19 H7           1.8140    -0.8790    -7.4320 hx         1 5UE       0.131700
     20 H9           4.2690     0.0010    -0.4790 h4         1 5UE       0.218000
     21 H10          4.1090     0.8410    -7.9920 hn         1 5UE       0.467467
     22 H11          3.2680    -0.0290    -9.0910 hn         1 5UE       0.467467
     23 H12          4.1470    -0.7920    -7.9430 hn         1 5UE       0.467467
     24 N05          1.9730     0.0030    -4.8120 ns         1 5UE      -0.470400
     25 H4           2.0010     2.0990    -6.9860 hc         1 5UE       0.085700
     26 H8           0.9950    -0.0330    -5.0200 hn         1 5UE       0.355500
@<TRIPOS>BOND
     1     1    11 1   
     2     9     8 2   
     3     9    10 1   
     4    11     8 1   
     5    11    12 2   
     6     8     7 1   
     7    10     6 1   
     8     7     6 2   
     9     6    24 1   
    10     5     4 2   
    11    13     3 1   
    12     4    24 1   
    13     4     3 1   
    14     3     2 1   
    15     1    14 1   
    16     1    15 1   
    17     1    16 1   
    18     2    25 1   
    19     2    17 1   
    20     2    18 1   
    21     3    19 1   
    22    24    26 1   
    23     9    20 1   
    24    13    21 1   
    25    13    22 1   
    26    13    23 1   
@<TRIPOS>SUBSTRUCTURE
     1 5UE         1 TEMP              0 ****  ****    0 ROOT
