@<TRIPOS>MOLECULE
5UE
   26    26     1     0     0
SMALL
bcc


@<TRIPOS>ATOM
      1 C13          0.0000     0.0000     0.0000 c3         1 5UE      -0.074100
      2 C01          1.5670     1.2550    -7.5080 c3         1 5UE      -0.000100
      3 C02          2.4110     0.0060    -7.2460 c3         1 5UE      -0.153500
      4 C03          2.8750     0.0050    -5.8130 c          1 5UE       0.513100
      5 O04          4.0620     0.0040    -5.5600 o          1 5UE      -0.621100
      6 C06          2.4020     0.0030    -3.4900 cc         1 5UE       0.315300
      7 N07          1.6240     0.0020    -2.4560 nd         1 5UE      -0.522000
      8 C08          2.2380     0.0010    -1.2670 cd         1 5UE       0.241800
      9 C09          3.6000     0.0020    -1.3310 cc         1 5UE      -0.040400
     10 S10          4.0820    -0.0060    -2.9720 ss         1 5UE      -0.175300
     11 C11          1.5060     0.0000     0.0000 c          1 5UE       0.528600
     12 O12          2.1140     0.0000     1.0510 o          1 5UE      -0.533100
     13 N14          3.5770     0.0060    -8.1390 nz         1 5UE       0.100400
     14 H1          -0.3610    -0.8840    -0.5110 hc         1 5UE       0.030700
     15 H2          -0.3610    -0.0010     1.0210 hc         1 5UE       0.030700
     16 H3          -0.3610     0.8850    -0.5100 hc         1 5UE       0.030700
     17 H5           0.5570     1.0890    -7.1520 hc         1 5UE       0.043367
     18 H6           1.5460     1.4600    -8.5710 hc         1 5UE       0.043367
     19 H7           1.8140    -0.8790    -7.4320 hx         1 5UE       0.098700
     20 H9           4.2690     0.0010    -0.4790 h4         1 5UE       0.189000
     21 H10          4.1090     0.8410    -7.9920 hn         1 5UE       0.231800
     22 H11          3.2680    -0.0290    -9.0910 hn         1 5UE       0.231800
     23 H12          4.1470    -0.7920    -7.9430 hn         1 5UE       0.231800
     24 N05          1.9730     0.0030    -4.8120 ns         1 5UE       0.035600
     25 H4           2.0010     2.0990    -6.9860 hc         1 5UE       0.043367
     26 H8           0.9950    -0.0330    -5.0200 hn         1 5UE       0.178500
@<TRIPOS>BOND
     1     1    11 1   
     2     1    14 1   
     3     1    15 1   
     4     1    16 1   
     5     2     3 1   
     6     2    17 1   
     7     2    18 1   
     8     2    25 1   
     9     3     4 1   
    10     3    13 1   
    11     3    19 1   
    12     4     5 2   
    13     4    24 1   
    14     6     7 2   
    15     6    10 1   
    16     6    24 1   
    17     7     8 1   
    18     8     9 2   
    19     8    11 1   
    20     9    10 1   
    21     9    20 1   
    22    11    12 2   
    23    13    21 1   
    24    13    22 1   
    25    13    23 1   
    26    24    26 1   
@<TRIPOS>SUBSTRUCTURE
     1 5UE         1 TEMP              0 ****  ****    0 ROOT
