@<TRIPOS>MOLECULE
molecule
   32    31     1     0     0
SMALL
bcc


@<TRIPOS>ATOM
      1 C1           0.0000     0.0000     0.0000 c          1 5UF       0.898600
      2 C2           1.5060     0.0000     0.0000 c3         1 5UF      -0.193400
      3 C3           2.0160     0.0000     1.4420 c3         1 5UF       0.166100
      4 C4           3.5410     0.1250     1.4440 c3         1 5UF      -0.100400
      5 C5           4.0410     0.2520     2.8850 c3         1 5UF      -0.082400
      6 C6           5.5660     0.3770     2.8870 c3         1 5UF      -0.082400
      7 O14          1.6380    -1.2200     2.0820 oh         1 5UF      -0.608800
      8 O13         -0.6710     0.0000    -1.1630 o          1 5UF      -0.859300
      9 O12         -0.6050    -0.0040     1.0470 o          1 5UF      -0.859300
     10 C7           6.0660     0.5030     4.3270 c3         1 5UF      -0.082400
     11 C8           7.5910     0.6280     4.3290 c3         1 5UF      -0.082400
     12 C9           8.0900     0.7540     5.7700 c3         1 5UF      -0.084400
     13 C10          9.6150     0.8800     5.7710 c3         1 5UF      -0.092100
     14 H1           1.8670    -0.8840    -0.5110 hc         1 5UF       0.037200
     15 H2           1.8670     0.8840    -0.5110 hc         1 5UF       0.037200
     16 H3           1.5850     0.8370     1.9780 h1         1 5UF       0.036700
     17 H4           3.9760    -0.7550     0.9870 hc         1 5UF       0.038700
     18 H5           3.8320     1.0050     0.8830 hc         1 5UF       0.038700
     19 H6           3.6060     1.1320     3.3420 hc         1 5UF       0.040200
     20 H7           3.7510    -0.6280     3.4460 hc         1 5UF       0.040200
     21 H8           5.8560     1.2570     2.3260 hc         1 5UF       0.036700
     22 H9           6.0010    -0.5030     2.4290 hc         1 5UF       0.036700
     23 H10          1.1010    -1.0290     2.8320 ho         1 5UF       0.401000
     24 H12          5.7760    -0.3770     4.8880 hc         1 5UF       0.038700
     25 H13          5.6310     1.3830     4.7850 hc         1 5UF       0.038700
     26 H14          7.8820     1.5080     3.7680 hc         1 5UF       0.038700
     27 H15          8.0270    -0.2520     3.8720 hc         1 5UF       0.038700
     28 H16          7.6550     1.6340     6.2270 hc         1 5UF       0.038700
     29 H17          7.8000    -0.1260     6.3310 hc         1 5UF       0.038700
     30 H18          9.9690     0.9690     6.7910 hc         1 5UF       0.028700
     31 H19          9.9050     1.7600     5.2100 hc         1 5UF       0.028700
     32 H20         10.0500     0.0000     5.3130 hc         1 5UF       0.028700
@<TRIPOS>BOND
     1     9     1 1
     2     1     8 1
     3     1     2 1
     4     2     3 1
     5     3     4 1
     6     3     7 1
     7     4     5 1
     8     5     6 1
     9     6    10 1
    10    10    11 1
    11    11    12 1
    12    12    13 1
    13     2    14 1
    14     2    15 1
    15     3    16 1
    16     4    17 1
    17     4    18 1
    18     5    19 1
    19     5    20 1
    20     6    21 1
    21     6    22 1
    22     7    23 1
    23    10    24 1
    24    10    25 1
    25    11    26 1
    26    11    27 1
    27    12    28 1
    28    12    29 1
    29    13    30 1
    30    13    31 1
    31    13    32 1
@<TRIPOS>SUBSTRUCTURE
     1 5UF         1 TEMP              0 ****  ****    0 ROOT
