@<TRIPOS>MOLECULE
molecule
   47    46     1     0     0
SMALL
bcc


@<TRIPOS>ATOM
      1 O5P          0.0000     0.0000     0.0000 o          1 5UG      -0.610100
      2 C5P          1.2120     0.0000     0.0000 c          1 5UG       0.656100
      3 N4P          1.8860     0.0000     1.1680 ns         1 5UG      -0.595900
      4 C3P          1.1530    -0.0020     2.4370 c3         1 5UG       0.130000
      5 C2P          2.1460    -0.0030     3.6000 c3         1 5UG      -0.000300
      6 S1P          1.2390    -0.0050     5.1700 sh         1 5UG      -0.558900
      7 C6P          1.9660    -0.0040    -1.3040 c3         1 5UG      -0.179400
      8 C7P          0.9720    -0.0090    -2.4680 c3         1 5UG       0.128000
      9 N8P          1.7060    -0.0140    -3.7360 ns         1 5UG      -0.595900
     10 C9P          1.0330    -0.0190    -4.9030 c          1 5UG       0.652100
     11 O9P         -0.1770    -0.1110    -4.9060 o          1 5UG      -0.621100
     12 CAP          1.7820     0.0910    -6.2060 c3         1 5UG       0.082100
     13 OAP          3.1620     0.3520    -5.9410 oh         1 5UG      -0.604800
     14 CBP          1.6510    -1.2220    -6.9810 c3         1 5UG      -0.066000
     15 CDP          2.1100    -2.3840    -6.0980 c3         1 5UG      -0.076600
     16 CEP          0.1900    -1.4330    -7.3830 c3         1 5UG      -0.076600
     17 CCP          2.5220    -1.1600    -8.2380 c3         1 5UG       0.242400
     18 O6A          2.4000    -2.3870    -8.9620 os         1 5UG      -0.601200
     19 P2A          3.1810    -2.6730   -10.3400 p5         1 5UG       1.426800
     20 O4A          2.8750    -1.5990   -11.3120 o          1 5UG      -0.857000
     21 O5A          4.7670    -2.7090   -10.0610 o          1 5UG      -0.857000
     22 O3A          2.7090    -4.0900   -10.9410 os         1 5UG      -0.715800
     23 P1A          2.8540    -4.7990   -12.3790 p5         1 5UG       1.312900
     24 O1A          4.3250    -5.4390   -12.5160 o          1 5UG      -0.850500
     25 O2A          1.7480    -5.9620   -12.5180 o          1 5UG      -0.850500
     26 O5B          2.6510    -3.7950   -13.4470 o          1 5UG      -0.850500
     27 H1           2.8870     0.0010     1.1680 hn         1 5UG       0.303500
     28 H2           0.5310    -0.8870     2.4930 h1         1 5UG       0.056200
     29 H3           0.5300     0.8820     2.4950 h1         1 5UG       0.056200
     30 H4           2.7690     0.8810     3.5440 h1         1 5UG       0.036200
     31 H5           2.7690    -0.8880     3.5420 h1         1 5UG       0.036200
     32 H6           2.1010     0.0040     6.1790 hs         1 5UG       0.152800
     33 H7           2.5880     0.8800    -1.3640 hc         1 5UG       0.059700
     34 H8           2.5890    -0.8890    -1.3580 hc         1 5UG       0.059700
     35 H9           0.3490     0.8750    -2.4140 h1         1 5UG       0.060700
     36 H10          0.3500    -0.8940    -2.4070 h1         1 5UG       0.060700
     37 H11          2.7060     0.0270    -3.7360 hn         1 5UG       0.324500
     38 H12          1.3670     0.9000    -6.7940 h1         1 5UG       0.058700
     39 H13          3.3510     1.2570    -6.1270 ho         1 5UG       0.390000
     40 H14          1.4190    -2.5050    -5.2730 hc         1 5UG       0.038867
     41 H15          3.1000    -2.1750    -5.7120 hc         1 5UG       0.038867
     42 H16          2.1360    -3.2940    -6.6840 hc         1 5UG       0.038867
     43 H17         -0.2490    -0.4830    -7.6620 hc         1 5UG       0.038867
     44 H18          0.1410    -2.1140    -8.2250 hc         1 5UG       0.038867
     45 H19         -0.3580    -1.8530    -6.5480 hc         1 5UG       0.038867
     46 H20          3.5560    -1.0100    -7.9540 h1         1 5UG       0.024200
     47 H21          2.1960    -0.3380    -8.8630 h1         1 5UG       0.024200
@<TRIPOS>BOND
     1    26    23 1
     2     5     6 1
     3     5     4 1
     4    24    23 1
     5     3     4 1
     6     3     2 1
     7     9     8 1
     8     9    10 1
     9     8     7 1
    10     7     2 1
    11    23    22 1
    12    23    25 1
    13    15    14 1
    14     2     1 2
    15    12    13 1
    16    12    10 1
    17    12    14 1
    18    17    14 1
    19    17    18 1
    20    22    19 1
    21    10    11 2
    22    14    16 1
    23    18    19 1
    24    19    20 1
    25    19    21 1
    26     3    27 1
    27     4    28 1
    28     4    29 1
    29     5    30 1
    30     5    31 1
    31     6    32 1
    32     7    33 1
    33     7    34 1
    34     8    35 1
    35     8    36 1
    36     9    37 1
    37    12    38 1
    38    13    39 1
    39    15    40 1
    40    15    41 1
    41    15    42 1
    42    16    43 1
    43    16    44 1
    44    16    45 1
    45    17    46 1
    46    17    47 1
@<TRIPOS>SUBSTRUCTURE
     1 5UG         1 TEMP              0 ****  ****    0 ROOT
