@<TRIPOS>MOLECULE
molecule
   31    32     1     0     0
SMALL
bcc


@<TRIPOS>ATOM
      1 C1           0.0000     0.0000     0.0000 ca         1 5UH       0.117100
      2 C2           1.3860     0.0000     0.0000 ca         1 5UH      -0.224000
      3 C3           2.0780     0.0000     1.1960 ca         1 5UH      -0.080000
      4 O1           2.0150     2.3390     3.4540 o          1 5UH      -0.843800
      5 O2           3.0820     1.6650     5.2690 o          1 5UH      -0.843800
      6 C11         -4.2610     0.9220     0.4640 ca         1 5UH      -0.152500
      7 C12         -4.9460     0.0040     1.2400 ca         1 5UH      -0.150000
      8 C13         -4.2530    -0.9140     2.0090 ca         1 5UH      -0.152500
      9 C14         -2.8730    -0.9200     2.0040 ca         1 5UH      -0.108500
     10 C6           2.4130     1.4200     4.1310 c          1 5UH       0.891600
     11 C4           1.3930     0.0000     2.3990 ca         1 5UH      -0.040300
     12 C7           0.0130     0.0010     2.4140 ca         1 5UH      -0.071000
     13 C8          -0.6940     0.0010     1.2140 cp         1 5UH      -0.085000
     14 O           -0.6810     0.0060    -1.1750 os         1 5UH      -0.333900
     15 C            0.0940     0.0100    -2.3750 c3         1 5UH       0.132700
     16 C9          -2.1780     0.0020     1.2240 cp         1 5UH       0.033000
     17 C10         -2.8820     0.9250     0.4520 ca         1 5UH      -0.108500
     18 H1           1.9270    -0.0000    -0.9380 ha         1 5UH       0.116000
     19 H2           3.1610    -0.0000     1.1930 ha         1 5UH       0.130000
     20 H4          -4.8080     1.6400    -0.1330 ha         1 5UH       0.115500
     21 H5          -6.0290     0.0050     1.2460 ha         1 5UH       0.109000
     22 H6          -4.7950    -1.6330     2.6120 ha         1 5UH       0.115500
     23 H7          -2.5490    -1.7840     2.5720 ha         1 5UH       0.137000
     24 H8           1.5790    -0.5110     4.4580 hc         1 5UH       0.039200
     25 H9           3.1030    -0.5110     3.5610 hc         1 5UH       0.039200
     26 H10         -0.5200     0.0010     3.3570 ha         1 5UH       0.140000
     27 H11         -0.5680     0.0150    -3.2320 h1         1 5UH       0.031033
     28 H12          0.7180    -0.8750    -2.4050 h1         1 5UH       0.031033
     29 H13          0.7200     0.8940    -2.3970 h1         1 5UH       0.031033
     30 H14         -2.6170     1.8840     0.0220 ha         1 5UH       0.137000
     31 C5           2.1580    -0.0000     3.6980 c3         1 5UH      -0.150100
@<TRIPOS>BOND
     1     7     8 ar  
     2     7     6 ar  
     3     8     9 ar  
     4     6    17 ar  
     5     9    16 ar  
     6    17    16 ar  
     7    16    13 1   
     8    13    12 ar  
     9    13     1 ar  
    10    14     1 1   
    11    14    15 1   
    12    12    11 ar  
    13     1     2 ar  
    14    11    31 1   
    15    11     3 ar  
    16     2     3 ar  
    17     4    10 1   
    18    31    10 1   
    19    10     5 1   
    20     2    18 1   
    21     3    19 1   
    22     6    20 1   
    23     7    21 1   
    24     8    22 1   
    25     9    23 1   
    26    31    24 1   
    27    31    25 1   
    28    12    26 1   
    29    15    27 1   
    30    15    28 1   
    31    15    29 1   
    32    17    30 1   
@<TRIPOS>SUBSTRUCTURE
     1 5UH         1 TEMP              0 ****  ****    0 ROOT
