@<TRIPOS>MOLECULE
molecule
   54    58     1     0     0
SMALL
bcc


@<TRIPOS>ATOM
      1 C4           0.0000     0.0000     0.0000 ca         1 5UJ       0.037900
      2 C5           1.3830     0.0000     0.0000 ca         1 5UJ      -0.122000
      3 C6          -0.7530    -0.0040     3.7010 c3         1 5UJ      -0.026400
      4 C3          -0.6920    -0.0020     1.1980 ca         1 5UJ      -0.120000
      5 C2           0.0000    -0.0030     2.3960 ca         1 5UJ      -0.059300
      6 C1           1.3820    -0.0020     2.3960 ca         1 5UJ      -0.120000
      7 C            2.0750     0.0000     1.1980 ca         1 5UJ       0.037900
      8 C20         -3.4970     1.9330    16.4930 c          1 5UJ       0.705100
      9 C17         -2.3260     1.7490    15.6240 ca         1 5UJ      -0.161600
     10 C16         -1.0420     2.1600    15.9850 ca         1 5UJ      -0.193300
     11 C15         -0.0070     1.9410    15.0990 ca         1 5UJ       0.423200
     12 N3          -0.2100     1.3570    13.9310 nb         1 5UJ      -0.705000
     13 N5          -4.6880     1.4860    16.0300 ns         1 5UJ      -0.475400
     14 C19         -4.7770     0.8990    14.8080 cc         1 5UJ       0.495800
     15 N4          -3.7590     0.7280    14.0180 nd         1 5UJ      -0.603100
     16 C18         -2.5160     1.1270    14.3710 ca         1 5UJ       0.082100
     17 C14         -1.4010     0.9480    13.5360 ca         1 5UJ       0.575800
     18 N1          -1.4540     0.3370    12.3010 na         1 5UJ       0.040600
     19 C12         -0.6510     0.5030    11.2170 cd         1 5UJ      -0.059300
     20 N2          -2.3180    -0.7310    12.0350 nd         1 5UJ      -0.480800
     21 C13         -2.0510    -1.1870    10.8380 cc         1 5UJ       0.312200
     22 C11         -1.0050    -0.4280    10.3010 cc         1 5UJ      -0.337600
     23 C10         -0.6530    -1.1390     8.7570 c3         1 5UJ       0.028900
     24 N           -0.7130    -0.0020     6.5880 n3         1 5UJ      -0.715600
     25 C8          -1.1060     1.2080     5.8550 c3         1 5UJ       0.151300
     26 C7          -0.3850     1.2450     4.5050 c3         1 5UJ      -0.072900
     27 C21         -1.1000    -1.2150     5.8570 c3         1 5UJ       0.151300
     28 C22         -0.3780    -1.2500     4.5070 c3         1 5UJ      -0.072900
     29 Cl1         -0.8690     0.0080    -1.5030 cl         1 5UJ      -0.099400
     30 Cl           3.8100     0.0010     1.1980 cl         1 5UJ      -0.099400
     31 H1           1.9240     0.0020    -0.9380 ha         1 5UJ       0.157000
     32 H2          -1.8190    -0.0070     3.5090 hc         1 5UJ       0.057700
     33 H3          -1.7750    -0.0020     1.1990 ha         1 5UJ       0.150500
     34 H4           1.9240    -0.0020     3.3340 ha         1 5UJ       0.150500
     35 H6           0.9950     2.2550    15.3670 h4         1 5UJ       0.034100
     36 H7          -5.5090     1.5890    16.5920 hn         1 5UJ       0.341500
     37 H8          -5.7480     0.5540    14.4740 h5         1 5UJ       0.060800
     38 H9           0.1970     1.1740    11.1450 h4         1 5UJ       0.186000
     39 H10         -2.5520    -2.0120    10.3470 h4         1 5UJ       0.048100
     40 H11         -0.9580    -2.1790     8.7600 hc         1 5UJ       0.063200
     41 H12          0.4110    -1.0760     8.5640 hc         1 5UJ       0.063200
     42 H16         -0.8320     2.0830     6.4330 h1         1 5UJ       0.036700
     43 H17         -2.1760     1.1970     5.6910 h1         1 5UJ       0.036700
     44 H18         -0.6890     2.1290     3.9580 hc         1 5UJ       0.053700
     45 H19          0.6860     1.2660     4.6690 hc         1 5UJ       0.053700
     46 H20         -0.8220    -2.0870     6.4350 h1         1 5UJ       0.036700
     47 H21         -2.1700    -1.2090     5.6920 h1         1 5UJ       0.036700
     48 H22          0.6930    -1.2640     4.6710 hc         1 5UJ       0.053700
     49 H23         -0.6780    -2.1360     3.9610 hc         1 5UJ       0.053700
     50 C9          -1.2770    -0.0020     7.9440 c3         1 5UJ       0.145800
     51 H5          -0.8620     2.6390    16.9390 ha         1 5UJ       0.166000
     52 O           -3.3990     2.4620    17.5840 o          1 5UJ      -0.610500
     53 H13         -2.3250     0.0910     8.2000 h1         1 5UJ       0.051700
     54 H14         -0.7660     0.9260     8.1700 h1         1 5UJ       0.051700
@<TRIPOS>BOND
     1    30     7 1   
     2     2     7 ar  
     3     2     1 ar  
     4    29     1 1   
     5     7     6 ar  
     6     1     4 ar  
     7     6     5 ar  
     8     4     5 ar  
     9     5     3 1   
    10     3    26 1   
    11     3    28 1   
    12    26    25 1   
    13    28    27 1   
    14    25    24 1   
    15    27    24 1   
    16    24    50 1   
    17    50    23 1   
    18    23    22 1   
    19    22    21 1   
    20    22    19 2   
    21    21    20 2   
    22    19    18 1   
    23    20    18 1   
    24    18    17 1   
    25    15    14 2   
    26    15    16 1   
    27    17    16 ar  
    28    17    12 ar  
    29    14    13 1   
    30    16     9 ar  
    31    12    11 ar  
    32    13     8 1   
    33     9     8 1   
    34     9    10 ar  
    35    11    10 ar  
    36     8    52 2   
    37     2    31 1   
    38     3    32 1   
    39     4    33 1   
    40     6    34 1   
    41    10    51 1   
    42    11    35 1   
    43    13    36 1   
    44    14    37 1   
    45    19    38 1   
    46    21    39 1   
    47    23    40 1   
    48    23    41 1   
    49    50    53 1   
    50    50    54 1   
    51    25    42 1   
    52    25    43 1   
    53    26    44 1   
    54    26    45 1   
    55    27    46 1   
    56    27    47 1   
    57    28    48 1   
    58    28    49 1   
@<TRIPOS>SUBSTRUCTURE
     1 5UJ         1 TEMP              0 ****  ****    0 ROOT
