@<TRIPOS>MOLECULE
5UK
   21    20     1     0     0
SMALL
bcc


@<TRIPOS>ATOM
      1 OAC          0.0000     0.0000     0.0000 o          1 5UK      -0.897300
      2 CAJ          1.3460     0.0000     0.0000 c          1 5UK       0.867300
      3 OAE          1.9530     0.0000     1.0520 o          1 5UK      -0.897300
      4 CAL          2.0880     0.0000    -1.2840 ce         1 5UK       0.413300
      5 NAA          1.4470     0.0000    -2.3920 n2         1 5UK      -0.785100
      6 CAN          3.5950    -0.0000    -1.2830 c3         1 5UK      -0.179000
      7 CAK          4.0970    -1.2870    -0.6830 c          1 5UK       0.996600
      8 OAF          3.3120    -2.1200    -0.2950 o          1 5UK      -0.895300
      9 OAD          5.4170    -1.5100    -0.5790 o          1 5UK      -0.895300
     10 CAI          4.1040     0.1260    -2.7200 c3         1 5UK      -0.067400
     11 CAM          5.6070     0.2500    -2.7110 c          1 5UK       0.504100
     12 CAH          6.3590     0.3880    -4.0090 c3         1 5UK       0.121400
     13 OAB          7.7590     0.4890    -3.7400 oh         1 5UK      -0.561800
     14 OAG          6.2060     0.2390    -1.6630 o          1 5UK      -0.414100
     15 H2           0.4460     0.0000    -2.3920 hn         1 5UK       0.315400
     16 H3           3.9560     0.8360    -0.6970 hc         1 5UK       0.042700
     17 H5           3.8180    -0.7540    -3.2840 hc         1 5UK       0.013200
     18 H6           3.6720     1.0060    -3.1810 hc         1 5UK       0.013200
     19 H7           6.1720    -0.4800    -4.6290 h1         1 5UK      -0.021300
     20 H8           6.0260     1.2800    -4.5260 h1         1 5UK      -0.021300
     21 H9           8.2300     0.5750    -4.5520 ho         1 5UK       0.347000
@<TRIPOS>BOND
     1     1     2 1   
     2     2     3 1   
     3     2     4 1   
     4     4     5 2   
     5     4     6 1   
     6     5    15 1   
     7     6     7 1   
     8     6    10 1   
     9     6    16 1   
    10     7     8 1   
    11     7     9 1   
    12    10    11 1   
    13    10    17 1   
    14    10    18 1   
    15    11    12 1   
    16    11    14 2   
    17    12    13 1   
    18    12    19 1   
    19    12    20 1   
    20    13    21 1   
@<TRIPOS>SUBSTRUCTURE
     1 5UK         1 TEMP              0 ****  ****    0 ROOT
