@<TRIPOS>MOLECULE
5UL
   57    61     1     0     0
SMALL
bcc


@<TRIPOS>ATOM
      1 C1           0.0000     0.0000     0.0000 ca         1 5UL      -0.097000
      2 C2           1.3820     0.0000     0.0000 ca         1 5UL      -0.091000
      3 N3           5.4600    10.7080    -1.7580 nb         1 5UL      -0.567000
      4 C4           3.5800     0.0010     1.1970 c3         1 5UL       0.031900
      5 C7           6.1250     2.8880     1.2600 c3         1 5UL       0.151300
      6 C9           6.0730     5.3330    -1.5960 c3         1 5UL       0.067900
      7 C10          6.6760     6.7050    -1.7540 cc         1 5UL      -0.312600
      8 C11          6.0510     7.8800    -1.5200 cd         1 5UL      -0.244300
      9 C12          7.9840     6.9850    -2.1640 cc         1 5UL       0.399200
     10 C13          6.6930    10.2460    -1.6630 ca         1 5UL       0.342800
     11 C14          5.1690    11.9940    -1.6550 ca         1 5UL       0.394200
     12 C16          7.4740    12.5120    -1.3300 ca         1 5UL      -0.177600
     13 C17          7.7580    11.1340    -1.4440 ca         1 5UL       0.045100
     14 C18         10.0140    11.5550    -1.1360 cc         1 5UL       0.327800
     15 C20          4.2570     3.5480    -0.1350 c3         1 5UL       0.151300
     16 C23          0.0010     0.0000     2.3960 ca         1 5UL      -0.097000
     17 C19          8.5950    13.4350    -1.1010 c          1 5UL       0.613100
     18 C15          6.1520    12.9390    -1.4400 ca         1 5UL      -0.140300
     19 N5           9.8340    12.8960    -1.0140 ns         1 5UL      -0.011400
     20 N4           9.0410    10.7170    -1.3390 nd         1 5UL      -0.492100
     21 N1           6.9370     8.8770    -1.7800 na         1 5UL       0.508600
     22 N2           8.1410     8.2840    -2.1820 nd         1 5UL      -0.622800
     23 N            5.7200     3.4970    -0.0130 n3         1 5UL      -0.541600
     24 C6           5.6160     1.4460     1.3220 c3         1 5UL      -0.029400
     25 C21          3.6920     2.1260    -0.1140 c3         1 5UL      -0.029400
     26 C5           4.0900     1.4430     1.1980 c3         1 5UL      -0.049700
     27 C3           2.0730     0.0000     1.1980 ca         1 5UL      -0.085300
     28 C22          1.3820     0.0010     2.3950 ca         1 5UL      -0.091000
     29 C           -0.6910     0.0060     1.1990 ca         1 5UL      -0.037600
     30 Cl          -2.4280     0.0060     1.1990 cl         1 5UL      -0.031400
     31 H1          -0.5420     0.0020    -0.9380 ha         1 5UL       0.114000
     32 H2           1.9240    -0.0050    -0.9380 ha         1 5UL       0.111000
     33 H3           3.9410    -0.5100     0.3120 hc         1 5UL       0.022200
     34 H4           3.9420    -0.5100     2.0810 hc         1 5UL       0.022200
     35 H5           7.2060     2.8910     1.3320 h1         1 5UL       0.010200
     36 H6           5.7020     3.4540     2.0800 h1         1 5UL       0.010200
     37 H7           5.0090     5.3810    -1.7910 hc         1 5UL       0.023200
     38 H8           6.5380     4.6510    -2.2970 hc         1 5UL       0.023200
     39 H9           5.0020     8.0070    -1.2820 h4         1 5UL       0.158000
     40 H10          8.7380     6.2520    -2.4240 h4         1 5UL       0.006100
     41 H11          4.1370    12.3120    -1.7420 h4         1 5UL      -0.010900
     42 H12         11.0210    11.1640    -1.0610 h5         1 5UL       0.009800
     43 H13          3.8460     4.1100     0.6950 h1         1 5UL       0.010200
     44 H14          3.9900     4.0270    -1.0700 h1         1 5UL       0.010200
     45 H15         -0.5400     0.0030     3.3350 ha         1 5UL       0.114000
     46 H16          5.9000    13.9900    -1.3570 ha         1 5UL       0.137000
     47 H17         10.6240    13.4900    -0.8590 hn         1 5UL       0.185500
     48 H21          5.9010     1.0040     2.2690 hc         1 5UL       0.023950
     49 H22          6.0460     0.8770     0.5070 hc         1 5UL       0.023950
     50 H23          2.6120     2.1660    -0.1860 hc         1 5UL       0.023950
     51 H24          4.0950     1.5660    -0.9490 hc         1 5UL       0.023950
     52 H25          3.6590     1.9840     2.0310 hc         1 5UL       0.030700
     53 H26          1.9240    -0.0010     3.3330 ha         1 5UL       0.111000
     54 C8           6.3070     4.8340    -0.1680 c3         1 5UL       0.151800
     55 O            8.4160    14.6350    -0.9940 o          1 5UL      -0.653500
     56 H18          7.3720     4.7860     0.0280 h1         1 5UL       0.010700
     57 H19          5.8420     5.5160     0.5340 h1         1 5UL       0.010700
@<TRIPOS>BOND
     1     1     2 ar  
     2     1    29 ar  
     3     1    31 1   
     4     2    27 ar  
     5     2    32 1   
     6     3    10 ar  
     7     3    11 ar  
     8     4    26 1   
     9     4    27 1   
    10     4    33 1   
    11     4    34 1   
    12     5    23 1   
    13     5    24 1   
    14     5    35 1   
    15     5    36 1   
    16     6     7 1   
    17     6    37 1   
    18     6    38 1   
    19     6    54 1   
    20     7     8 2   
    21     7     9 1   
    22     8    21 1   
    23     8    39 1   
    24     9    22 2   
    25     9    40 1   
    26    10    13 ar  
    27    10    21 1   
    28    11    18 ar  
    29    11    41 1   
    30    12    13 ar  
    31    12    17 1   
    32    12    18 ar  
    33    13    20 1   
    34    14    19 1   
    35    14    20 2   
    36    14    42 1   
    37    15    23 1   
    38    15    25 1   
    39    15    43 1   
    40    15    44 1   
    41    16    28 ar  
    42    16    29 ar  
    43    16    45 1   
    44    17    19 1   
    45    17    55 2   
    46    18    46 1   
    47    19    47 1   
    48    21    22 1   
    49    23    54 1   
    50    24    26 1   
    51    24    48 1   
    52    24    49 1   
    53    25    26 1   
    54    25    50 1   
    55    25    51 1   
    56    26    52 1   
    57    27    28 ar  
    58    28    53 1   
    59    29    30 1   
    60    54    56 1   
    61    54    57 1   
@<TRIPOS>SUBSTRUCTURE
     1 5UL         1 TEMP              0 ****  ****    0 ROOT
