@<TRIPOS>MOLECULE
molecule
   32    33     1     0     0
SMALL
bcc


@<TRIPOS>ATOM
      1 C01          0.0000     0.0000     0.0000 ca         1 5UM      -0.353500
      2 F01          3.4250    -0.0000     1.1970 f          1 5UM      -0.113900
      3 N01         -1.1240    -1.5830    -1.9510 nz         1 5UM      -0.806500
      4 O01         -2.1630     0.5430    -1.2520 o          1 5UM      -0.518800
      5 S01         -0.8800    -0.0020    -1.5270 sy         1 5UM       1.229200
      6 C02          1.3820     0.0000     0.0000 ca         1 5UM      -0.052000
      7 O02          0.0030     0.5430    -2.4990 o          1 5UM      -0.518800
      8 C03          2.0750     0.0000     1.1970 ca         1 5UM       0.087900
      9 C04          1.3790     0.0000     2.4000 ca         1 5UM       0.132600
     10 C05         -0.0090     0.0010     2.3950 ca         1 5UM      -0.133000
     11 C06         -0.6950     0.0060     1.1950 ca         1 5UM      -0.018000
     12 N07          2.0760     0.0000     3.6150 ns         1 5UM      -0.469100
     13 C08          1.4910    -0.4890     4.7270 c          1 5UM       0.660100
     14 O08          0.4040    -1.0210     4.6560 o          1 5UM      -0.563100
     15 C09          2.1910    -0.3770     6.0570 c3         1 5UM      -0.064100
     16 C10          1.3340    -0.9970     7.1300 cc         1 5UM      -0.052400
     17 C11          1.3810    -2.2750     7.5080 cd         1 5UM      -0.123000
     18 C12          0.4960    -2.6170     8.5170 cd         1 5UM      -0.159000
     19 C13         -0.2700    -1.6170     8.9560 cc         1 5UM      -0.046100
     20 S14          0.1220    -0.1440     8.0780 ss         1 5UM      -0.141800
     21 HN01        -0.2400    -2.0410    -2.0550 hn         1 5UM       0.492133
     22 HN0A        -1.6560    -2.0410    -1.2390 hn         1 5UM       0.492133
     23 H02          1.9230     0.0110    -0.9380 ha         1 5UM       0.170000
     24 H05         -0.5550     0.0040     3.3310 ha         1 5UM       0.211000
     25 H06         -1.7780     0.0060     1.1910 ha         1 5UM       0.162000
     26 HN07         2.9900     0.4040     3.6670 hn         1 5UM       0.353500
     27 H09          2.3600     0.6680     6.2880 hc         1 5UM       0.083200
     28 H09A         3.1420    -0.8950     6.0100 hc         1 5UM       0.083200
     29 H11          2.0600    -2.9910     7.0610 ha         1 5UM       0.147000
     30 H12          0.4290    -3.6210     8.9170 ha         1 5UM       0.157000
     31 H13         -1.0160    -1.6990     9.7370 h4         1 5UM       0.180000
     32 H013        -1.6160    -1.6220    -2.8220 hn         1 5UM       0.492133
@<TRIPOS>BOND
     1     6     1 ar  
     2    11     1 ar  
     3     1     5 1   
     4     2     8 1   
     5     3     5 1   
     6     3    21 1   
     7     3    22 1   
     8     5     4 2   
     9     7     5 2   
    10     8     6 ar  
    11     6    23 1   
    12     9     8 ar  
    13    12     9 1   
    14     9    10 ar  
    15    10    11 ar  
    16    10    24 1   
    17    11    25 1   
    18    13    12 1   
    19    12    26 1   
    20    15    13 1   
    21    13    14 2   
    22    15    16 1   
    23    15    27 1   
    24    15    28 1   
    25    17    16 2   
    26    16    20 1   
    27    17    18 1   
    28    17    29 1   
    29    18    19 2   
    30    18    30 1   
    31    20    19 1   
    32    19    31 1   
    33    32     3 1   
@<TRIPOS>SUBSTRUCTURE
     1 5UM         1 TEMP              0 ****  ****    0 ROOT
