@<TRIPOS>MOLECULE
5UN
   32    33     1     0     0
SMALL
bcc


@<TRIPOS>ATOM
      1 C01          0.0000     0.0000     0.0000 ca         1 5UN      -0.257500
      2 N01         -1.1230    -1.5810    -1.9530 nz         1 5UN      -0.134500
      3 O01         -2.1620     0.5440    -1.2510 o          1 5UN      -0.497300
      4 S01         -0.8780     0.0000    -1.5270 sy         1 5UN       0.934200
      5 C02          1.3830     0.0000     0.0000 ca         1 5UN       0.037500
      6 O02          0.0030     0.5460    -2.4980 o          1 5UN      -0.497300
      7 C03          2.0750     0.0000     1.1950 ca         1 5UN      -0.141500
      8 C04          1.3810    -0.0010     2.3980 ca         1 5UN       0.027600
      9 C05         -0.0080    -0.0010     2.3940 ca         1 5UN      -0.141500
     10 C06         -0.6940     0.0050     1.1960 ca         1 5UN       0.037500
     11 N07          2.0790    -0.0010     3.6110 ns         1 5UN      -0.046100
     12 C08          3.2600     0.6390     3.7090 c          1 5UN       0.558100
     13 O08          3.6740     1.2940     2.7750 o          1 5UN      -0.586100
     14 C09          4.0690     0.5380     4.9770 c3         1 5UN       0.015900
     15 C10          5.3370     1.3390     4.8270 cc         1 5UN      -0.009400
     16 C11          5.4760     2.6260     5.1510 cd         1 5UN      -0.092000
     17 C12          6.7380     3.1500     4.9270 cd         1 5UN      -0.127000
     18 C13          7.6230     2.2880     4.4210 cc         1 5UN       0.034900
     19 S14          6.8620     0.7170     4.2090 ss         1 5UN      -0.268800
     20 HN01        -1.6540    -2.0400    -1.2390 hn         1 5UN       0.312467
     21 HN0A        -0.2390    -2.0390    -2.0580 hn         1 5UN       0.312467
     22 H02          1.9250     0.0010    -0.9380 ha         1 5UN       0.124500
     23 H03          3.1580     0.0000     1.1950 ha         1 5UN       0.149000
     24 H05         -0.5520     0.0000     3.3310 ha         1 5UN       0.149000
     25 H06         -1.7770     0.0040     1.1940 ha         1 5UN       0.124500
     26 HN07         1.7060    -0.4870     4.4020 hn         1 5UN       0.185500
     27 H09          3.4910     0.9280     5.8060 hc         1 5UN       0.041200
     28 H09A         4.3180    -0.4990     5.1650 hc         1 5UN       0.041200
     29 H11          4.6640     3.2160     5.5580 ha         1 5UN       0.119000
     30 H12          6.9880     4.1820     5.1430 ha         1 5UN       0.127000
     31 H13          8.6540     2.5200     4.1830 h4         1 5UN       0.154000
     32 H013        -1.6320    -1.6200    -2.8140 hn         1 5UN       0.312467
@<TRIPOS>BOND
     1     1     4 1   
     2     1     5 ar  
     3     1    10 ar  
     4     2     4 1   
     5     2    20 1   
     6     2    21 1   
     7     2    32 1   
     8     3     4 2   
     9     4     6 2   
    10     5     7 ar  
    11     5    22 1   
    12     7     8 ar  
    13     7    23 1   
    14     8     9 ar  
    15     8    11 1   
    16     9    10 ar  
    17     9    24 1   
    18    10    25 1   
    19    11    12 1   
    20    11    26 1   
    21    12    13 2   
    22    12    14 1   
    23    14    15 1   
    24    14    27 1   
    25    14    28 1   
    26    15    16 2   
    27    15    19 1   
    28    16    17 1   
    29    16    29 1   
    30    17    18 2   
    31    17    30 1   
    32    18    19 1   
    33    18    31 1   
@<TRIPOS>SUBSTRUCTURE
     1 5UN         1 TEMP              0 ****  ****    0 ROOT
