@<TRIPOS>MOLECULE
molecule
   32    33     1     0     0
SMALL
bcc


@<TRIPOS>ATOM
      1 C01          0.0000     0.0000     0.0000 ca         1 5UN      -0.371500
      2 N01         -1.1230    -1.5810    -1.9530 nz         1 5UN      -0.806500
      3 O01         -2.1620     0.5440    -1.2510 o          1 5UN      -0.521300
      4 S01         -0.8780     0.0000    -1.5270 sy         1 5UN       1.225200
      5 C02          1.3830     0.0000     0.0000 ca         1 5UN      -0.007000
      6 O02          0.0030     0.5460    -2.4980 o          1 5UN      -0.521300
      7 C03          2.0750     0.0000     1.1950 ca         1 5UN      -0.159500
      8 C04          1.3810    -0.0010     2.3980 ca         1 5UN       0.169600
      9 C05         -0.0080    -0.0010     2.3940 ca         1 5UN      -0.159500
     10 C06         -0.6940     0.0050     1.1960 ca         1 5UN      -0.007000
     11 N07          2.0790    -0.0010     3.6110 ns         1 5UN      -0.483100
     12 C08          3.2600     0.6390     3.7090 c          1 5UN       0.653100
     13 O08          3.6740     1.2940     2.7750 o          1 5UN      -0.551100
     14 C09          4.0690     0.5380     4.9770 c3         1 5UN      -0.064100
     15 C10          5.3370     1.3390     4.8270 cc         1 5UN      -0.050400
     16 C11          5.4760     2.6260     5.1510 cd         1 5UN      -0.121000
     17 C12          6.7380     3.1500     4.9270 cd         1 5UN      -0.157000
     18 C13          7.6230     2.2880     4.4210 cc         1 5UN      -0.046100
     19 S14          6.8620     0.7170     4.2090 ss         1 5UN      -0.149800
     20 HN01        -1.6540    -2.0400    -1.2390 hn         1 5UN       0.490467
     21 HN0A        -0.2390    -2.0390    -2.0580 hn         1 5UN       0.490467
     22 H02          1.9250     0.0010    -0.9380 ha         1 5UN       0.157000
     23 H03          3.1580     0.0000     1.1950 ha         1 5UN       0.178000
     24 H05         -0.5520     0.0000     3.3310 ha         1 5UN       0.178000
     25 H06         -1.7770     0.0040     1.1940 ha         1 5UN       0.157000
     26 HN07         1.7060    -0.4870     4.4020 hn         1 5UN       0.341500
     27 H09          3.4910     0.9280     5.8060 hc         1 5UN       0.079700
     28 H09A         4.3180    -0.4990     5.1650 hc         1 5UN       0.079700
     29 H11          4.6640     3.2160     5.5580 ha         1 5UN       0.148000
     30 H12          6.9880     4.1820     5.1430 ha         1 5UN       0.158000
     31 H13          8.6540     2.5200     4.1830 h4         1 5UN       0.179000
     32 H013        -1.6320    -1.6200    -2.8140 hn         1 5UN       0.490467
@<TRIPOS>BOND
     1    10     1 ar
     2     5     1 ar
     3     1     4 1
     4     2     4 1
     5     2    20 1
     6     2    21 1
     7     4     3 2
     8     6     4 2
     9     7     5 ar
    10     5    22 1
    11     8     7 ar
    12     7    23 1
    13    11     8 1
    14     8     9 ar
    15     9    10 ar
    16     9    24 1
    17    10    25 1
    18    12    11 1
    19    11    26 1
    20    14    12 1
    21    12    13 2
    22    14    15 1
    23    14    27 1
    24    14    28 1
    25    16    15 2
    26    15    19 1
    27    16    17 1
    28    16    29 1
    29    17    18 2
    30    17    30 1
    31    19    18 1
    32    18    31 1
    33    32     2 1
@<TRIPOS>SUBSTRUCTURE
     1 5UN         1 TEMP              0 ****  ****    0 ROOT
