@<TRIPOS>MOLECULE
molecule
   54    58     1     0     0
SMALL
bcc


@<TRIPOS>ATOM
      1 C1           0.0000     0.0000     0.0000 cc         1 5UO       0.496800
      2 N2           4.1300     0.0010    -0.0210 na         1 5UO       0.040600
      3 C3           3.4110     0.0010     1.1770 ca         1 5UO       0.572800
      4 C4           4.6300    -0.3140    -2.1350 cc         1 5UO       0.335200
      5 C5           5.7230     0.2820    -1.4950 cc         1 5UO      -0.306600
      6 C6           7.0330     0.6540    -2.1400 c3         1 5UO       0.000900
      7 C9           9.8710     1.9370    -5.0440 c3         1 5UO      -0.071900
      8 C10          9.9720     3.4250    -5.3860 c3         1 5UO      -0.027400
      9 C11         11.3650     3.7400    -5.8650 ca         1 5UO      -0.075300
     10 C12         11.5590     4.2600    -7.1310 ca         1 5UO      -0.117000
     11 C13         12.8370     4.5500    -7.5710 ca         1 5UO      -0.120000
     12 C18          8.2700     3.8820    -3.6160 c3         1 5UO       0.162300
     13 C19          5.3950     0.4650    -0.1940 cd         1 5UO      -0.081300
     14 C20          3.4230     0.0030     3.4940 ca         1 5UO       0.425200
     15 C21          2.0450     0.0020     3.5700 ca         1 5UO      -0.193300
     16 N1           1.2990     0.0000     0.0000 nd         1 5UO      -0.601100
     17 C2           2.0070     0.0000     1.1540 ca         1 5UO       0.075100
     18 C7           6.9490     2.0850    -2.6750 c3         1 5UO       0.164800
     19 C8           8.4730     1.6350    -4.5020 c3         1 5UO       0.162300
     20 C14         13.9220     4.3190    -6.7440 ca         1 5UO       0.024400
     21 N3           3.6780    -0.4850    -1.2540 nd         1 5UO      -0.461800
     22 C15         13.7270     3.7990    -5.4770 ca         1 5UO      -0.120000
     23 Cl          15.5280     4.6760    -7.2980 cl         1 5UO      -0.113400
     24 C16         12.4480     3.5150    -5.0360 ca         1 5UO      -0.117000
     25 C17          9.6630     4.2500    -4.1340 c3         1 5UO      -0.071900
     26 N4           8.2260     2.4470    -3.3040 n3         1 5UO      -0.733600
     27 N5           4.0510     0.0020     2.3310 nb         1 5UO      -0.700000
     28 C22          1.3130     0.0010     2.3830 ca         1 5UO      -0.161600
     29 C           -0.1560    -0.0000     2.3520 c          1 5UO       0.705100
     30 O           -0.8120    -0.0000     3.3770 o          1 5UO      -0.610500
     31 N           -0.7500    -0.0000     1.1330 ns         1 5UO      -0.476400
     32 H1          -0.5130     0.0000    -0.9540 h5         1 5UO       0.061800
     33 H2           4.5820    -0.5900    -3.1820 h4         1 5UO       0.051100
     34 H3           7.2380    -0.0260    -2.9580 hc         1 5UO       0.053700
     35 H4           7.8280     0.5880    -1.4070 hc         1 5UO       0.053700
     36 H5          10.6110     1.6890    -4.2920 hc         1 5UO       0.052950
     37 H6          10.0460     1.3500    -5.9380 hc         1 5UO       0.052950
     38 H7           9.2540     3.6660    -6.1610 hc         1 5UO       0.054700
     39 H8          10.7090     4.4410    -7.7780 ha         1 5UO       0.139000
     40 H9          12.9890     4.9570    -8.5630 ha         1 5UO       0.143500
     41 H10          8.0570     4.4520    -2.7200 h1         1 5UO       0.034950
     42 H11          7.5330     4.1080    -4.3770 h1         1 5UO       0.034950
     43 H12          6.0250     0.9050     0.5690 h4         1 5UO       0.186000
     44 H13          4.0030     0.0030     4.4090 h4         1 5UO       0.036100
     45 H14          1.5440     0.0030     4.5300 ha         1 5UO       0.166000
     46 H15          6.7430     2.7650    -1.8570 h1         1 5UO       0.036700
     47 H16          6.1540     2.1510    -3.4080 h1         1 5UO       0.036700
     48 H17          8.4060     0.5850    -4.2440 h1         1 5UO       0.034950
     49 H18          7.7340     1.8740    -5.2570 h1         1 5UO       0.034950
     50 H19         14.5760     3.6200    -4.8280 ha         1 5UO       0.143500
     51 H20         12.2950     3.1070    -4.0440 ha         1 5UO       0.139000
     52 H21         10.4000     4.0350    -3.3690 hc         1 5UO       0.052950
     53 H22          9.6880     5.3050    -4.3810 hc         1 5UO       0.052950
     54 H24         -1.7480    -0.0000     1.0670 hn         1 5UO       0.341500
@<TRIPOS>BOND
     1    23    20 1
     2    20    22 ar
     3    20    11 ar
     4    22    24 ar
     5    11    10 ar
     6    24     9 ar
     7    10     9 ar
     8     9     8 1
     9     8    25 1
    10     8     7 1
    11    25    12 1
    12     7    19 1
    13    12    26 1
    14    26    19 1
    15    26    18 1
    16    18     6 1
    17     6     5 1
    18     5     4 1
    19     5    13 2
    20     4    21 2
    21    13     2 1
    22    21     2 1
    23     2     3 1
    24    16     1 2
    25    16    17 1
    26     3    17 ar
    27     3    27 ar
    28     1    31 1
    29    17    28 ar
    30    27    14 ar
    31    31    29 1
    32    28    29 1
    33    28    15 ar
    34    14    15 ar
    35    29    30 2
    36     1    32 1
    37     4    33 1
    38     6    34 1
    39     6    35 1
    40     7    36 1
    41     7    37 1
    42     8    38 1
    43    10    39 1
    44    11    40 1
    45    12    41 1
    46    12    42 1
    47    13    43 1
    48    14    44 1
    49    15    45 1
    50    18    46 1
    51    18    47 1
    52    19    48 1
    53    19    49 1
    54    22    50 1
    55    24    51 1
    56    25    52 1
    57    25    53 1
    58    31    54 1
@<TRIPOS>SUBSTRUCTURE
     1 5UO         1 TEMP              0 ****  ****    0 ROOT
