@<TRIPOS>MOLECULE
5UO
   54    58     1     0     0
SMALL
bcc


@<TRIPOS>ATOM
      1 C1           0.0000     0.0000     0.0000 cc         1 5UO       0.328800
      2 N2           4.1300     0.0010    -0.0210 na         1 5UO       0.509600
      3 C3           3.4110     0.0010     1.1770 ca         1 5UO       0.341800
      4 C4           4.6300    -0.3140    -2.1350 cc         1 5UO       0.396200
      5 C5           5.7230     0.2820    -1.4950 cc         1 5UO      -0.315600
      6 C6           7.0330     0.6540    -2.1400 c3         1 5UO       0.068900
      7 C9           9.8710     1.9370    -5.0440 c3         1 5UO      -0.024400
      8 C10          9.9720     3.4250    -5.3860 c3         1 5UO       0.004600
      9 C11         11.3650     3.7400    -5.8650 ca         1 5UO      -0.082300
     10 C12         11.5590     4.2600    -7.1310 ca         1 5UO      -0.089000
     11 C13         12.8370     4.5500    -7.5710 ca         1 5UO      -0.097000
     12 C18          8.2700     3.8820    -3.6160 c3         1 5UO       0.151300
     13 C19          5.3950     0.4650    -0.1940 cd         1 5UO      -0.239300
     14 C20          3.4230     0.0030     3.4940 ca         1 5UO       0.393200
     15 C21          2.0450     0.0020     3.5700 ca         1 5UO      -0.139300
     16 N1           1.2990     0.0000     0.0000 nd         1 5UO      -0.494100
     17 C2           2.0070     0.0000     1.1540 ca         1 5UO       0.046100
     18 C7           6.9490     2.0850    -2.6750 c3         1 5UO       0.151800
     19 C8           8.4730     1.6350    -4.5020 c3         1 5UO       0.151300
     20 C14         13.9220     4.3190    -6.7440 ca         1 5UO      -0.036600
     21 N3           3.6780    -0.4850    -1.2540 nd         1 5UO      -0.622800
     22 C15         13.7270     3.7990    -5.4770 ca         1 5UO      -0.097000
     23 Cl          15.5280     4.6760    -7.2980 cl         1 5UO      -0.031400
     24 C16         12.4480     3.5150    -5.0360 ca         1 5UO      -0.089000
     25 C17          9.6630     4.2500    -4.1340 c3         1 5UO      -0.024400
     26 N4           8.2260     2.4470    -3.3040 n3         1 5UO      -0.542600
     27 N5           4.0510     0.0020     2.3310 nb         1 5UO      -0.563000
     28 C22          1.3130     0.0010     2.3830 ca         1 5UO      -0.178600
     29 C           -0.1560    -0.0000     2.3520 c          1 5UO       0.614100
     30 O           -0.8120    -0.0000     3.3770 o          1 5UO      -0.651500
     31 N           -0.7500    -0.0000     1.1330 ns         1 5UO      -0.014400
     32 H1          -0.5130     0.0000    -0.9540 h5         1 5UO       0.008800
     33 H2           4.5820    -0.5900    -3.1820 h4         1 5UO       0.004100
     34 H3           7.2380    -0.0260    -2.9580 hc         1 5UO       0.023200
     35 H4           7.8280     0.5880    -1.4070 hc         1 5UO       0.023200
     36 H5          10.6110     1.6890    -4.2920 hc         1 5UO       0.024200
     37 H6          10.0460     1.3500    -5.9380 hc         1 5UO       0.024200
     38 H7           9.2540     3.6660    -6.1610 hc         1 5UO       0.029700
     39 H8          10.7090     4.4410    -7.7780 ha         1 5UO       0.112500
     40 H9          12.9890     4.9570    -8.5630 ha         1 5UO       0.114000
     41 H10          8.0570     4.4520    -2.7200 h1         1 5UO       0.010700
     42 H11          7.5330     4.1080    -4.3770 h1         1 5UO       0.010700
     43 H12          6.0250     0.9050     0.5690 h4         1 5UO       0.159000
     44 H13          4.0030     0.0030     4.4090 h4         1 5UO      -0.010900
     45 H14          1.5440     0.0030     4.5300 ha         1 5UO       0.137000
     46 H15          6.7430     2.7650    -1.8570 h1         1 5UO       0.010700
     47 H16          6.1540     2.1510    -3.4080 h1         1 5UO       0.010700
     48 H17          8.4060     0.5850    -4.2440 h1         1 5UO       0.010700
     49 H18          7.7340     1.8740    -5.2570 h1         1 5UO       0.010700
     50 H19         14.5760     3.6200    -4.8280 ha         1 5UO       0.114000
     51 H20         12.2950     3.1070    -4.0440 ha         1 5UO       0.112500
     52 H21         10.4000     4.0350    -3.3690 hc         1 5UO       0.024200
     53 H22          9.6880     5.3050    -4.3810 hc         1 5UO       0.024200
     54 H24         -1.7480    -0.0000     1.0670 hn         1 5UO       0.185500
@<TRIPOS>BOND
     1     1    16 2   
     2     1    31 1   
     3     1    32 1   
     4     2     3 1   
     5     2    13 1   
     6     2    21 1   
     7     3    17 ar  
     8     3    27 ar  
     9     4     5 1   
    10     4    21 2   
    11     4    33 1   
    12     5     6 1   
    13     5    13 2   
    14     6    18 1   
    15     6    34 1   
    16     6    35 1   
    17     7     8 1   
    18     7    19 1   
    19     7    36 1   
    20     7    37 1   
    21     8     9 1   
    22     8    25 1   
    23     8    38 1   
    24     9    10 ar  
    25     9    24 ar  
    26    10    11 ar  
    27    10    39 1   
    28    11    20 ar  
    29    11    40 1   
    30    12    25 1   
    31    12    26 1   
    32    12    41 1   
    33    12    42 1   
    34    13    43 1   
    35    14    15 ar  
    36    14    27 ar  
    37    14    44 1   
    38    15    28 ar  
    39    15    45 1   
    40    16    17 1   
    41    17    28 ar  
    42    18    26 1   
    43    18    46 1   
    44    18    47 1   
    45    19    26 1   
    46    19    48 1   
    47    19    49 1   
    48    20    22 ar  
    49    20    23 1   
    50    22    24 ar  
    51    22    50 1   
    52    24    51 1   
    53    25    52 1   
    54    25    53 1   
    55    28    29 1   
    56    29    30 2   
    57    29    31 1   
    58    31    54 1   
@<TRIPOS>SUBSTRUCTURE
     1 5UO         1 TEMP              0 ****  ****    0 ROOT
