@<TRIPOS>MOLECULE
molecule
   24    25     1     0     0
SMALL
bcc


@<TRIPOS>ATOM
      1 C1           0.0000     0.0000     0.0000 ca         1 5UP      -0.177600
      2 C2           1.3950     0.0000     0.0000 ca         1 5UP      -0.126300
      3 C3           2.0680     0.0000     1.2210 ca         1 5UP       0.446300
      4 C4           0.0790     0.0020     2.3980 ca         1 5UP       0.462200
      5 C5          -0.6630     0.0010     1.2330 ca         1 5UP      -0.269300
      6 C6           3.5490    -0.0000     1.2410 cc         1 5UP       0.310300
      7 N1           1.3960     0.0020     2.3650 nb         1 5UP      -0.640000
      8 C7           4.2540    -0.0050     2.3870 cd         1 5UP      -0.139400
      9 C8           5.5680    -0.0010     0.2680 cd         1 5UP       0.762300
     10 O           -0.1680     0.0090    -2.3330 o          1 5UP      -0.402100
     11 C           -0.7600     0.0050    -1.2720 c          1 5UP       0.507700
     12 N           -2.1080     0.0050    -1.2510 nz         1 5UP      -0.679400
     13 N3           4.2790    -0.0010     0.1260 nc         1 5UP      -0.790000
     14 N2           6.4870    -0.0010    -0.7690 nv         1 5UP      -0.977500
     15 S            5.9700    -0.0030     1.9820 ss         1 5UP      -0.211300
     16 H1           1.9460    -0.0010    -0.9330 ha         1 5UP       0.197000
     17 H2          -0.4300     0.0030     3.3550 h4         1 5UP       0.053100
     18 H3          -1.7460     0.0010     1.2730 ha         1 5UP       0.116000
     19 H4           3.8390    -0.0070     3.3880 h4         1 5UP       0.203000
     20 H5          -2.4560     0.0070    -2.1900 hn         1 5UP       0.479467
     21 H6          -2.4350    -0.8130    -0.7760 hn         1 5UP       0.479467
     22 H7           6.1700    -0.0010    -1.7180 hn         1 5UP       0.457800
     23 H8           7.4680    -0.0000    -0.5690 hn         1 5UP       0.457800
     24 HN3         -2.4350     0.8220    -0.7730 hn         1 5UP       0.479467
@<TRIPOS>BOND
     1     5     4 ar  
     2     5     1 ar  
     3     4     7 ar  
     4    10    11 2   
     5    11     1 1   
     6    11    12 1   
     7     7     3 ar  
     8     1     2 ar  
     9     3     2 ar  
    10     3     6 1   
    11     6    13 1   
    12     6     8 2   
    13    13     9 2   
    14     8    15 1   
    15     9    15 1   
    16     9    14 1   
    17     2    16 1   
    18     4    17 1   
    19     5    18 1   
    20     8    19 1   
    21    12    20 1   
    22    12    21 1   
    23    14    22 1   
    24    14    23 1   
    25    24    12 1   
@<TRIPOS>SUBSTRUCTURE
     1 5UP         1 TEMP              0 ****  ****    0 ROOT
