@<TRIPOS>MOLECULE
5UP
   24    25     1     0     0
SMALL
bcc


@<TRIPOS>ATOM
      1 C1           0.0000     0.0000     0.0000 ca         1 5UP      -0.210600
      2 C2           1.3950     0.0000     0.0000 ca         1 5UP      -0.078300
      3 C3           2.0680     0.0000     1.2210 ca         1 5UP       0.387300
      4 C4           0.0790     0.0020     2.3980 ca         1 5UP       0.444200
      5 C5          -0.6630     0.0010     1.2330 ca         1 5UP      -0.233300
      6 C6           3.5490    -0.0000     1.2410 cc         1 5UP       0.270300
      7 N1           1.3960     0.0020     2.3650 nb         1 5UP      -0.510000
      8 C7           4.2540    -0.0050     2.3870 cd         1 5UP      -0.081400
      9 C8           5.5680    -0.0010     0.2680 cd         1 5UP       0.590300
     10 O           -0.1680     0.0090    -2.3330 o          1 5UP      -0.415100
     11 C           -0.7600     0.0050    -1.2720 c          1 5UP       0.357700
     12 N           -2.1080     0.0050    -1.2510 nz         1 5UP       0.199600
     13 N3           4.2790    -0.0010     0.1260 nc         1 5UP      -0.696000
     14 N2           6.4870    -0.0010    -0.7690 nv         1 5UP      -0.452500
     15 S            5.9700    -0.0030     1.9820 ss         1 5UP      -0.309300
     16 H1           1.9460    -0.0010    -0.9330 ha         1 5UP       0.162000
     17 H2          -0.4300     0.0030     3.3550 h4         1 5UP       0.002100
     18 H3          -1.7460     0.0010     1.2730 ha         1 5UP       0.092000
     19 H4           3.8390    -0.0070     3.3880 h4         1 5UP       0.176000
     20 H5          -2.4560     0.0070    -2.1900 hn         1 5UP       0.247800
     21 H6          -2.4350    -0.8130    -0.7760 hn         1 5UP       0.247800
     22 H7           6.1700    -0.0010    -1.7180 hn         1 5UP       0.280300
     23 H8           7.4680    -0.0000    -0.5690 hn         1 5UP       0.280300
     24 HN3         -2.4350     0.8220    -0.7730 hn         1 5UP       0.247800
@<TRIPOS>BOND
     1     1     2 ar  
     2     1     5 ar  
     3     1    11 1   
     4     2     3 ar  
     5     2    16 1   
     6     3     6 1   
     7     3     7 ar  
     8     4     5 ar  
     9     4     7 ar  
    10     4    17 1   
    11     5    18 1   
    12     6     8 2   
    13     6    13 1   
    14     8    15 1   
    15     8    19 1   
    16     9    13 2   
    17     9    14 1   
    18     9    15 1   
    19    10    11 2   
    20    11    12 1   
    21    12    20 1   
    22    12    21 1   
    23    12    24 1   
    24    14    22 1   
    25    14    23 1   
@<TRIPOS>SUBSTRUCTURE
     1 5UP         1 TEMP              0 ****  ****    0 ROOT
