@<TRIPOS>MOLECULE
5US
   54    56     1     0     0
SMALL
bcc


@<TRIPOS>ATOM
      1 C10          0.0000     0.0000     0.0000 c3         1 5US       0.143100
      2 C13          1.6080     1.1430     2.1060 c3         1 5US       0.162100
      3 C15          2.1950     1.0500     3.5160 c3         1 5US       0.224400
      4 C20          7.2430     1.4780    -2.6080 cp         1 5US      -0.027000
      5 C21          7.6780     2.5670    -3.3630 ca         1 5US      -0.086000
      6 C22          8.9940     2.6450    -3.7750 ca         1 5US      -0.104000
      7 C24          9.4640     0.5480    -2.6910 ca         1 5US      -0.150600
      8 C26         10.4200    -0.5220    -2.3380 c          1 5US       0.595700
      9 C02          3.6200     2.3320    -2.0910 ca         1 5US      -0.116300
     10 C03          4.9330     2.4100    -2.5040 ca         1 5US      -0.065000
     11 C04          5.8290     1.3970    -2.1670 cp         1 5US      -0.073000
     12 C05          5.3930     0.3080    -1.4130 ca         1 5US      -0.055000
     13 C06          4.0790     0.2350    -1.0040 ca         1 5US      -0.201000
     14 C07          3.1900     1.2490    -1.3370 ca         1 5US       0.170100
     15 O08          2.0070     1.1670    -0.6750 os         1 5US      -0.356900
     16 C09          1.5310     0.0000     0.0000 c3         1 5US       0.378900
     17 C11         -0.5020     1.2220     0.7760 c3         1 5US       0.162100
     18 C12          0.0790     1.1890     2.1920 c3         1 5US       0.147100
     19 O14          2.0060     0.0000     1.3470 os         1 5US      -0.385600
     20 O16          3.6200     1.1220     3.4440 oh         1 5US      -0.582800
     21 O17         -0.3230     2.3620     2.9010 oh         1 5US      -0.584800
     22 O18         -1.9300     1.1930     0.8420 oh         1 5US      -0.575800
     23 O19         -0.4780    -1.1920     0.6250 oh         1 5US      -0.554800
     24 C23          9.8870     1.6450    -3.4460 ca         1 5US      -0.093000
     25 C25          8.1360     0.4630    -2.2760 ca         1 5US      -0.038000
     26 O27         10.0500    -1.4750    -1.6810 o          1 5US      -0.649100
     27 N28         11.7020    -0.4420    -2.7440 ns         1 5US      -0.200900
     28 C29         12.6500    -1.5030    -2.3950 c3         1 5US       0.088300
     29 H101        -0.3600     0.0480    -1.0210 h1         1 5US       0.013700
     30 H131         1.9680     2.0410     1.6190 h1         1 5US       0.041700
     31 H151         1.8220     1.8690     4.1180 h1         1 5US      -0.002800
     32 H152         1.9040     0.1090     3.9670 h1         1 5US      -0.002800
     33 H211         6.9830     3.3550    -3.6240 ha         1 5US       0.111000
     34 H221         9.3270     3.4930    -4.3600 ha         1 5US       0.103000
     35 H013         1.7300     2.9870    -2.8210 hc         1 5US       0.006367
     36 H011         3.0840     4.0510    -3.2280 hc         1 5US       0.006367
     37 H012         2.4400     4.0290    -1.5800 hc         1 5US       0.006367
     38 H031         5.2600     3.2410    -3.1180 ha         1 5US       0.115000
     39 H051         6.0860    -0.4840    -1.1530 ha         1 5US       0.117000
     40 H061         3.7400    -0.6100    -0.4170 ha         1 5US       0.133000
     41 H091         1.8890    -0.8870    -0.5070 h2         1 5US       0.036700
     42 H111        -0.1770     2.1260     0.2740 h1         1 5US       0.028700
     43 H121        -0.2790     0.3070     2.7080 h1         1 5US       0.035700
     44 H161         3.9770     1.1780     4.3150 ho         1 5US       0.387000
     45 H171        -0.9910     2.1370     3.5280 ho         1 5US       0.398000
     46 H181        -2.2840     1.8640     0.2830 ho         1 5US       0.390000
     47 H191        -0.7770    -1.7950    -0.0350 ho         1 5US       0.390000
     48 H231        10.9180     1.7120    -3.7720 ha         1 5US       0.099000
     49 H251         7.8020    -0.3850    -1.6900 ha         1 5US       0.137000
     50 H281        12.0070     0.3440    -3.2850 hn         1 5US       0.175500
     51 H291        13.6250    -1.2660    -2.8050 h1         1 5US       0.008700
     52 H293        12.3050    -2.4450    -2.8040 h1         1 5US       0.008700
     53 H292        12.7220    -1.5820    -1.3170 h1         1 5US       0.008700
     54 C01          2.6500     3.4270    -2.4560 c3         1 5US       0.073200
@<TRIPOS>BOND
     1     1    16 1   
     2     1    17 1   
     3     1    23 1   
     4     1    29 1   
     5     2     3 1   
     6     2    18 1   
     7     2    19 1   
     8     2    30 1   
     9     3    20 1   
    10     3    31 1   
    11     3    32 1   
    12     4     5 ar  
    13     4    11 1   
    14     4    25 ar  
    15     5     6 ar  
    16     5    33 1   
    17     6    24 ar  
    18     6    34 1   
    19     7     8 1   
    20     7    24 ar  
    21     7    25 ar  
    22     8    26 2   
    23     8    27 1   
    24     9    10 ar  
    25     9    14 ar  
    26     9    54 1   
    27    10    11 ar  
    28    10    38 1   
    29    11    12 ar  
    30    12    13 ar  
    31    12    39 1   
    32    13    14 ar  
    33    13    40 1   
    34    14    15 1   
    35    15    16 1   
    36    16    19 1   
    37    16    41 1   
    38    17    18 1   
    39    17    22 1   
    40    17    42 1   
    41    18    21 1   
    42    18    43 1   
    43    20    44 1   
    44    21    45 1   
    45    22    46 1   
    46    23    47 1   
    47    24    48 1   
    48    25    49 1   
    49    27    28 1   
    50    27    50 1   
    51    28    51 1   
    52    28    52 1   
    53    28    53 1   
    54    35    54 1   
    55    36    54 1   
    56    37    54 1   
@<TRIPOS>SUBSTRUCTURE
     1 5US         1 TEMP              0 ****  ****    0 ROOT
