@<TRIPOS>MOLECULE
5UT
   59    62     1     0     0
SMALL
bcc


@<TRIPOS>ATOM
      1 C1           0.0000     0.0000     0.0000 cx         1 5UT      -0.080700
      2 C2          -0.6960     1.2740    -0.4020 ca         1 5UT      -0.020300
      3 C3          -1.6740     1.8140     0.4140 ca         1 5UT      -0.049600
      4 C4          -2.3160     2.9840     0.0500 ca         1 5UT      -0.142000
      5 C5          -1.9800     3.6190    -1.1340 ca         1 5UT       0.079100
      6 C6          -0.9940     3.0770    -1.9570 ca         1 5UT       0.045600
      7 C10          3.7650     2.8610    -6.2330 c3         1 5UT       0.126300
      8 C11          5.3280     3.8060    -7.8240 cy         1 5UT       0.089500
      9 C14          8.4470     6.7380    -7.9850 ce         1 5UT      -0.245200
     10 C18          1.6600     4.5190    -7.3690 c3         1 5UT       0.050000
     11 C20          1.5300     0.0000     0.0000 cx         1 5UT      -0.075400
     12 O2          -0.1090     5.0140    -5.3670 o          1 5UT      -0.643100
     13 C8           0.5640     4.0140    -5.2340 c          1 5UT       0.585100
     14 C7           0.3860     3.1430    -4.0180 c3         1 5UT       0.089800
     15 N           -0.6510     3.7140    -3.1550 nu         1 5UT      -0.410600
     16 O           -2.6100     4.7690    -1.4940 oh         1 5UT      -0.482100
     17 Cl          -2.0980     1.0190     1.8980 cl         1 5UT      -0.030400
     18 C19         -0.3510     1.9060    -1.5830 ca         1 5UT      -0.167000
     19 C21          0.7660     0.0000     1.3250 cx         1 5UT      -0.075400
     20 C           -0.7060    -1.2950    -0.4080 c3         1 5UT       0.049900
     21 N1           1.4700     3.6820    -6.1740 n          1 5UT      -0.153800
     22 C17          3.1540     4.8260    -7.5160 c3         1 5UT       0.126300
     23 N2           3.9110     3.5680    -7.5130 n3         1 5UT      -0.516600
     24 C9           2.2960     2.4740    -6.0330 c3         1 5UT       0.050000
     25 C16          5.5610     4.4350    -9.2090 cy         1 5UT       0.033000
     26 N3           6.5610     5.2900    -8.5400 nj         1 5UT      -0.194800
     27 C12          5.8770     5.1220    -7.2440 cy         1 5UT       0.033000
     28 C13          7.6580     5.9580    -8.9510 c          1 5UT       0.632300
     29 O1           7.9950     5.9160   -10.1180 o          1 5UT      -0.645100
     30 C15          9.5290     7.3970    -8.3890 c2         1 5UT      -0.054000
     31 H1          -3.0810     3.4040     0.6910 ha         1 5UT       0.118000
     32 H2           4.3750     1.9660    -6.2440 h1         1 5UT       0.023450
     33 H3           4.0800     3.5090    -5.4250 h1         1 5UT       0.023450
     34 H4           5.9770     2.9600    -7.6320 h1         1 5UT       0.064700
     35 H5           8.1460     6.7760    -6.9450 ha         1 5UT       0.104000
     36 H7           1.1080     5.4440    -7.2560 h1         1 5UT       0.037950
     37 H8           1.3110     3.9860    -8.2460 h1         1 5UT       0.037950
     38 H9           1.9980     0.9390    -0.2690 hc         1 5UT       0.048450
     39 H10          1.9980    -0.9390    -0.2700 hc         1 5UT       0.048450
     40 H11          0.0910     2.1470    -4.3260 h1         1 5UT       0.027700
     41 H12          1.3210     3.0890    -3.4720 h1         1 5UT       0.027700
     42 H13         -1.1110     4.5620    -3.4200 hn         1 5UT       0.335800
     43 H14         -3.4930     4.7610    -1.1620 ho         1 5UT       0.405000
     44 H15          0.4150     1.4820    -2.2210 ha         1 5UT       0.119000
     45 H16          0.7670     0.9390     1.8640 hc         1 5UT       0.048450
     46 H17          0.7670    -0.9390     1.8640 hc         1 5UT       0.048450
     47 H18         -0.1060    -1.8170    -1.1440 hc         1 5UT       0.006700
     48 H19         -1.6750    -1.0600    -0.8320 hc         1 5UT       0.006700
     49 H20         -0.8370    -1.9250     0.4640 hc         1 5UT       0.006700
     50 H21          3.4770     5.4440    -6.6880 h1         1 5UT       0.023450
     51 H22          3.3240     5.3470    -8.4510 h1         1 5UT       0.023450
     52 H24          2.1620     2.0560    -5.0420 h1         1 5UT       0.037950
     53 H25          2.0060     1.7470    -6.7820 h1         1 5UT       0.037950
     54 H26          4.7050     4.9870    -9.5750 h1         1 5UT       0.038200
     55 H27          5.9990     3.7460    -9.9210 h1         1 5UT       0.038200
     56 H28          6.5620     4.9710    -6.4180 h1         1 5UT       0.038200
     57 H29          5.1080     5.8640    -7.0690 h1         1 5UT       0.038200
     58 H30          9.8300     7.3590    -9.4290 ha         1 5UT       0.092000
     59 H31         10.1110     7.9720    -7.6780 ha         1 5UT       0.092000
@<TRIPOS>BOND
     1     1     2 1   
     2     1    11 1   
     3     1    19 1   
     4     1    20 1   
     5     2     3 ar  
     6     2    18 ar  
     7     3     4 ar  
     8     3    17 1   
     9     4     5 ar  
    10     4    31 1   
    11     5     6 ar  
    12     5    16 1   
    13     6    15 1   
    14     6    18 ar  
    15     7    23 1   
    16     7    24 1   
    17     7    32 1   
    18     7    33 1   
    19     8    23 1   
    20     8    25 1   
    21     8    27 1   
    22     8    34 1   
    23     9    28 1   
    24     9    30 2   
    25     9    35 1   
    26    10    21 1   
    27    10    22 1   
    28    10    36 1   
    29    10    37 1   
    30    11    19 1   
    31    11    38 1   
    32    11    39 1   
    33    12    13 2   
    34    13    14 1   
    35    13    21 1   
    36    14    15 1   
    37    14    40 1   
    38    14    41 1   
    39    15    42 1   
    40    16    43 1   
    41    18    44 1   
    42    19    45 1   
    43    19    46 1   
    44    20    47 1   
    45    20    48 1   
    46    20    49 1   
    47    21    24 1   
    48    22    23 1   
    49    22    50 1   
    50    22    51 1   
    51    24    52 1   
    52    24    53 1   
    53    25    26 1   
    54    25    54 1   
    55    25    55 1   
    56    26    27 1   
    57    26    28 1   
    58    27    56 1   
    59    27    57 1   
    60    28    29 2   
    61    30    58 1   
    62    30    59 1   
@<TRIPOS>SUBSTRUCTURE
     1 5UT         1 TEMP              0 ****  ****    0 ROOT
