@<TRIPOS>MOLECULE
5UU
   39    42     1     0     0
SMALL
bcc


@<TRIPOS>ATOM
      1 C10          0.0000     0.0000     0.0000 ca         1 5UU       0.038600
      2 C13          1.3880     0.0000     2.3950 ca         1 5UU       0.049900
      3 C17          1.3890     0.0000     0.0000 ca         1 5UU      -0.157000
      4 C20          0.0020     0.0010     2.3980 ca         1 5UU      -0.082500
      5 C21          1.5430    -2.0610    -5.1110 c3         1 5UU      -0.068700
      6 C22          0.1960    -3.4610    -3.5660 c3         1 5UU      -0.027400
      7 C01         -0.0150     0.1130    -2.4090 ca         1 5UU       0.026600
      8 C02          0.2830     1.3830    -2.9480 ca         1 5UU      -0.153300
      9 N03          1.3520     0.3260    -4.7910 nb         1 5UU      -0.564000
     10 C04          0.9890     1.4510    -4.1740 ca         1 5UU       0.384600
     11 C05          0.3960    -1.0180    -3.1100 ca         1 5UU      -0.176600
     12 C06          1.0790    -0.8740    -4.3040 ca         1 5UU       0.399600
     13 N07         -0.7010    -0.0060    -1.2100 nu         1 5UU      -0.265000
     14 C08          1.2930     2.7110    -4.7170 ca         1 5UU      -0.140300
     15 C09         -0.1010     2.5650    -2.3010 ca         1 5UU      -0.075000
     16 C11          0.9060     3.8410    -4.0610 ca         1 5UU      -0.028600
     17 C12          0.2090     3.7700    -2.8550 ca         1 5UU      -0.093000
     18 Cl14         1.2860     5.3940    -4.7390 cl         1 5UU      -0.021400
     19 F15          2.0640     0.0010     3.5640 f          1 5UU      -0.130900
     20 C16          0.0720    -2.3620    -2.5130 c3         1 5UU       0.032900
     21 C18         -0.6910     0.0010     1.2040 ca         1 5UU      -0.157000
     22 C19          2.0790     0.0000     1.1950 ca         1 5UU      -0.082500
     23 C23          1.5610    -3.3210    -4.2500 c3         1 5UU      -0.028400
     24 H1           1.9300    -0.0000    -0.9380 ha         1 5UU       0.117500
     25 H2          -0.5370     0.0010     3.3380 ha         1 5UU       0.115500
     26 H4           2.5430    -1.8690    -5.4820 hc         1 5UU       0.031700
     27 H5          -0.5920    -3.3510    -4.3010 hc         1 5UU       0.018700
     28 H6           0.1250    -4.4310    -3.0900 hc         1 5UU       0.018700
     29 H7          -1.7010    -0.0560    -1.2090 hn         1 5UU       0.293800
     30 H8           1.8340     2.7840    -5.6530 ha         1 5UU       0.130000
     31 H9          -0.6430     2.5210    -1.3640 ha         1 5UU       0.115000
     32 H10         -0.0880     4.6830    -2.3540 ha         1 5UU       0.116000
     33 H11          0.7610    -2.5670    -1.7020 hc         1 5UU       0.027200
     34 H12         -0.9420    -2.3470    -2.1320 hc         1 5UU       0.027200
     35 H13         -1.7750     0.0010     1.2070 ha         1 5UU       0.117500
     36 H14          3.1620    -0.0000     1.1940 ha         1 5UU       0.115500
     37 H15          2.3370    -3.2370    -3.4990 hc         1 5UU       0.019200
     38 H16          1.7440    -4.1860    -4.8760 hc         1 5UU       0.019200
     39 H3           0.8690    -2.2090    -5.9460 hc         1 5UU       0.031700
@<TRIPOS>BOND
     1     1     3 ar  
     2     1    13 1   
     3     1    21 ar  
     4     2     4 ar  
     5     2    19 1   
     6     2    22 ar  
     7     3    22 ar  
     8     3    24 1   
     9     4    21 ar  
    10     4    25 1   
    11     5    12 1   
    12     5    23 1   
    13     5    26 1   
    14     5    39 1   
    15     6    20 1   
    16     6    23 1   
    17     6    27 1   
    18     6    28 1   
    19     7     8 ar  
    20     7    11 ar  
    21     7    13 1   
    22     8    10 ar  
    23     8    15 ar  
    24     9    10 ar  
    25     9    12 ar  
    26    10    14 ar  
    27    11    12 ar  
    28    11    20 1   
    29    13    29 1   
    30    14    16 ar  
    31    14    30 1   
    32    15    17 ar  
    33    15    31 1   
    34    16    17 ar  
    35    16    18 1   
    36    17    32 1   
    37    20    33 1   
    38    20    34 1   
    39    21    35 1   
    40    22    36 1   
    41    23    37 1   
    42    23    38 1   
@<TRIPOS>SUBSTRUCTURE
     1 5UU         1 TEMP              0 ****  ****    0 ROOT
