@<TRIPOS>MOLECULE
molecule
   39    42     1     0     0
SMALL
bcc


@<TRIPOS>ATOM
      1 C10          0.0000     0.0000     0.0000 ca         1 5UU       0.181600
      2 C13          1.3880     0.0000     2.3950 ca         1 5UU       0.083900
      3 C17          1.3890     0.0000     0.0000 ca         1 5UU      -0.174500
      4 C20          0.0020     0.0010     2.3980 ca         1 5UU      -0.123500
      5 C21          1.5430    -2.0610    -5.1110 c3         1 5UU      -0.125700
      6 C22          0.1960    -3.4610    -3.5660 c3         1 5UU      -0.084400
      7 C01         -0.0150     0.1130    -2.4090 ca         1 5UU       0.180600
      8 C02          0.2830     1.3830    -2.9480 ca         1 5UU      -0.169300
      9 N03          1.3520     0.3260    -4.7910 nb         1 5UU      -0.690000
     10 C04          0.9890     1.4510    -4.1740 ca         1 5UU       0.434600
     11 C05          0.3960    -1.0180    -3.1100 ca         1 5UU      -0.193600
     12 C06          1.0790    -0.8740    -4.3040 ca         1 5UU       0.458600
     13 N07         -0.7010    -0.0060    -1.2100 nu         1 5UU      -0.709000
     14 C08          1.2930     2.7110    -4.7170 ca         1 5UU      -0.163300
     15 C09         -0.1010     2.5650    -2.3010 ca         1 5UU      -0.093000
     16 C11          0.9060     3.8410    -4.0610 ca         1 5UU       0.039400
     17 C12          0.2090     3.7700    -2.8550 ca         1 5UU      -0.126000
     18 Cl14         1.2860     5.3940    -4.7390 cl         1 5UU      -0.103400
     19 F15          2.0640     0.0010     3.5640 f          1 5UU      -0.143900
     20 C16          0.0720    -2.3620    -2.5130 c3         1 5UU      -0.028100
     21 C18         -0.6910     0.0010     1.2040 ca         1 5UU      -0.174500
     22 C19          2.0790     0.0000     1.1950 ca         1 5UU      -0.123500
     23 C23          1.5610    -3.3210    -4.2500 c3         1 5UU      -0.084400
     24 H1           1.9300    -0.0000    -0.9380 ha         1 5UU       0.141500
     25 H2          -0.5370     0.0010     3.3380 ha         1 5UU       0.146500
     26 H4           2.5430    -1.8690    -5.4820 hc         1 5UU       0.067200
     27 H5          -0.5920    -3.3510    -4.3010 hc         1 5UU       0.047700
     28 H6           0.1250    -4.4310    -3.0900 hc         1 5UU       0.047700
     29 H7          -1.7010    -0.0560    -1.2090 hn         1 5UU       0.453800
     30 H8           1.8340     2.7840    -5.6530 ha         1 5UU       0.163000
     31 H9          -0.6430     2.5210    -1.3640 ha         1 5UU       0.147000
     32 H10         -0.0880     4.6830    -2.3540 ha         1 5UU       0.146000
     33 H11          0.7610    -2.5670    -1.7020 hc         1 5UU       0.058200
     34 H12         -0.9420    -2.3470    -2.1320 hc         1 5UU       0.058200
     35 H13         -1.7750     0.0010     1.2070 ha         1 5UU       0.141500
     36 H14          3.1620    -0.0000     1.1940 ha         1 5UU       0.146500
     37 H15          2.3370    -3.2370    -3.4990 hc         1 5UU       0.049700
     38 H16          1.7440    -4.1860    -4.8760 hc         1 5UU       0.049700
     39 H3           0.8690    -2.2090    -5.9460 hc         1 5UU       0.067200
@<TRIPOS>BOND
     1    18    16 1
     2    14    16 ar
     3    14    10 ar
     4     9    10 ar
     5     9    12 ar
     6    16    17 ar
     7     5    23 1
     8     5    12 1
     9    10     8 ar
    10    23     6 1
    11    12    11 ar
    12    17    15 ar
    13     8    15 ar
    14     8     7 ar
    15    11     7 ar
    16    11    20 1
    17     6    20 1
    18     7    13 1
    19    13     1 1
    20     1    21 ar
    21     1     3 ar
    22    21     4 ar
    23     3    22 ar
    24     4     2 ar
    25    22     2 ar
    26     2    19 1
    27     3    24 1
    28     4    25 1
    29     5    39 1
    30     5    26 1
    31     6    27 1
    32     6    28 1
    33    13    29 1
    34    14    30 1
    35    15    31 1
    36    17    32 1
    37    20    33 1
    38    20    34 1
    39    21    35 1
    40    22    36 1
    41    23    37 1
    42    23    38 1
@<TRIPOS>SUBSTRUCTURE
     1 5UU         1 TEMP              0 ****  ****    0 ROOT
