@<TRIPOS>MOLECULE
molecule
   39    42     1     0     0
SMALL
bcc


@<TRIPOS>ATOM
      1 C10          0.0000     0.0000     0.0000 ca         1 5UV       0.191600
      2 C13          1.2910     2.7160    -4.7160 ca         1 5UV      -0.155300
      3 C15          0.2110     3.7730    -2.8540 ca         1 5UV       0.029400
      4 C17          1.3880     0.0000     0.0000 ca         1 5UV      -0.170000
      5 C21          0.0710    -2.3600    -2.5180 c3         1 5UV      -0.029100
      6 C22          1.5410    -2.0560    -5.1160 c3         1 5UV      -0.125700
      7 C24          1.5580    -3.3180    -4.2580 c3         1 5UV      -0.084400
      8 C01         -0.0140     0.1150    -2.4100 ca         1 5UV       0.175600
      9 C02          0.2860     1.3860    -2.9470 ca         1 5UV      -0.160300
     10 C03          0.3960    -1.0160    -3.1120 ca         1 5UV      -0.190600
     11 N04          1.3490     0.3300    -4.7930 nb         1 5UV      -0.689000
     12 C05          1.0770    -0.8690    -4.3080 ca         1 5UV       0.456600
     13 C06          0.9880     1.4550    -4.1740 ca         1 5UV       0.426600
     14 N07         -0.7010    -0.0060    -1.2110 nu         1 5UV      -0.705000
     15 C08          0.0010     0.0030     2.3990 ca         1 5UV       0.029400
     16 C09         -0.6920    -0.0010     1.2040 ca         1 5UV      -0.176000
     17 C11         -0.1060     2.5670    -2.3010 ca         1 5UV      -0.100000
     18 C12          1.3880    -0.0020     2.3950 ca         1 5UV       0.091900
     19 C14          2.0790     0.0000     1.1960 ca         1 5UV      -0.115000
     20 Cl16        -0.8630     0.0030     3.9040 cl         1 5UV      -0.083400
     21 F18          2.0650    -0.0060     3.5650 f          1 5UV      -0.130900
     22 C19          0.9070     3.8450    -4.0590 ca         1 5UV      -0.114000
     23 C23          0.1930    -3.4580    -3.5740 c3         1 5UV      -0.083400
     24 H1           1.8310     2.7890    -5.6520 ha         1 5UV       0.156000
     25 H2           1.9300     0.0010    -0.9380 ha         1 5UV       0.151000
     26 H3           0.7600    -2.5670    -1.7080 hc         1 5UV       0.058200
     27 H4          -0.9430    -2.3440    -2.1360 hc         1 5UV       0.058200
     28 H5           2.5410    -1.8650    -5.4870 hc         1 5UV       0.067200
     29 H6           0.8670    -2.2030    -5.9510 hc         1 5UV       0.067200
     30 H7           2.3340    -3.2360    -3.5060 hc         1 5UV       0.049700
     31 H8           1.7400    -4.1820    -4.8850 hc         1 5UV       0.049700
     32 H9          -1.7000    -0.0600    -1.2100 hn         1 5UV       0.456800
     33 H10         -1.7760     0.0010     1.2060 ha         1 5UV       0.149000
     34 H11         -0.6470     2.5220    -1.3640 ha         1 5UV       0.154000
     35 H12          3.1630    -0.0020     1.1960 ha         1 5UV       0.154000
     36 H13          1.1480     4.8140    -4.4790 ha         1 5UV       0.148000
     37 H14         -0.5960    -3.3450    -4.3090 hc         1 5UV       0.048700
     38 H15          0.1210    -4.4290    -3.0990 hc         1 5UV       0.048700
     39 Cl20        -0.2590     5.2360    -2.0470 cl         1 5UV      -0.103400
@<TRIPOS>BOND
     1    21    18 1
     2    19    18 ar
     3    19     4 ar
     4    18    15 ar
     5    23     5 1
     6    23     7 1
     7     4     1 ar
     8     5    10 1
     9     7     6 1
    10    15    20 1
    11    15    16 ar
    12     1    16 ar
    13     1    14 1
    14     6    12 1
    15    10    12 ar
    16    10     8 ar
    17    14     8 1
    18    12    11 ar
    19     8     9 ar
    20    11    13 ar
    21     9    13 ar
    22     9    17 ar
    23    13     2 ar
    24    17     3 ar
    25     2    22 ar
    26     3    22 ar
    27     3    39 1
    28     2    24 1
    29     4    25 1
    30     5    26 1
    31     5    27 1
    32     6    28 1
    33     6    29 1
    34     7    30 1
    35     7    31 1
    36    14    32 1
    37    16    33 1
    38    17    34 1
    39    19    35 1
    40    22    36 1
    41    23    37 1
    42    23    38 1
@<TRIPOS>SUBSTRUCTURE
     1 5UV         1 TEMP              0 ****  ****    0 ROOT
