@<TRIPOS>MOLECULE
molecule
   48    50     1     0     0
SMALL
bcc


@<TRIPOS>ATOM
      1 C10          0.0000     0.0000     0.0000 ca         1 5UW      -0.125500
      2 C13          1.3830    -0.0010     2.3940 ca         1 5UW      -0.123500
      3 C15          3.6870    -2.4810     0.9230 c3         1 5UW       0.153800
      4 C17          3.8050    -4.8820     0.6300 c3         1 5UW       0.164500
      5 C21          3.4240    -7.2930     0.1020 c3         1 5UW       0.158300
      6 C22          3.7510    -5.9210    -0.4930 c3         1 5UW      -0.074900
      7 C01          3.5810     0.0000     1.1970 c3         1 5UW       0.020900
      8 C02          4.0830     1.3160     0.6620 ca         1 5UW      -0.072800
      9 C03          4.7440     2.1960     1.4990 ca         1 5UW      -0.123500
     10 C04          5.2040     3.4030     1.0080 ca         1 5UW      -0.125500
     11 C05          5.0050     3.7310    -0.3200 ca         1 5UW      -0.130000
     12 C06          4.3450     2.8500    -1.1570 ca         1 5UW      -0.125500
     13 C07          3.8880     1.6410    -0.6670 ca         1 5UW      -0.123500
     14 C08          2.0740     0.0000     1.1970 ca         1 5UW      -0.072800
     15 C09          1.3820     0.0000     0.0000 ca         1 5UW      -0.123500
     16 C11         -0.6910    -0.0000     1.1970 ca         1 5UW      -0.130000
     17 C12          0.0010    -0.0000     2.3950 ca         1 5UW      -0.125500
     18 C14          4.0910    -1.1390     0.3110 c3         1 5UW      -0.073400
     19 N16          4.1760    -3.5740     0.0730 n7         1 5UW      -0.817200
     20 C18          4.8490    -5.3120     1.6650 c3         1 5UW      -0.074900
     21 C19          4.4900    -6.7010     2.1980 c3         1 5UW       0.158300
     22 N20          4.4540    -7.6590     1.0850 n7         1 5UW      -0.817200
     23 H1          -0.5420    -0.0000    -0.9380 ha         1 5UW       0.129000
     24 H2           1.9250    -0.0010     3.3320 ha         1 5UW       0.130250
     25 H3           2.6070    -2.5350     0.9940 h1         1 5UW       0.036200
     26 H4           4.1190    -2.5720     1.9120 h1         1 5UW       0.036200
     27 H5           2.8340    -4.8150     1.1050 h1         1 5UW       0.023700
     28 H6           2.4580    -7.2520     0.5910 h1         1 5UW       0.030450
     29 H7           3.4030    -8.0320    -0.6890 h1         1 5UW       0.030450
     30 H8           4.7120    -5.9640    -0.9900 hc         1 5UW       0.054950
     31 H9           2.9820    -5.6440    -1.2030 hc         1 5UW       0.054950
     32 H10          3.9420    -0.1400     2.2080 hc         1 5UW       0.062700
     33 H11          4.9000     1.9400     2.5400 ha         1 5UW       0.130250
     34 H12          5.7220     4.0930     1.6640 ha         1 5UW       0.129000
     35 H13          5.3650     4.6780    -0.7040 ha         1 5UW       0.129000
     36 H14          4.1900     3.1060    -2.1980 ha         1 5UW       0.129000
     37 H15          3.3710     0.9510    -1.3230 ha         1 5UW       0.130250
     38 H16          1.9240     0.0000    -0.9380 ha         1 5UW       0.130250
     39 H17         -1.7750     0.0000     1.1970 ha         1 5UW       0.129000
     40 H18         -0.5400    -0.0000     3.3330 ha         1 5UW       0.129000
     41 H19          5.1710    -1.0850     0.2400 hc         1 5UW       0.053700
     42 H20          3.6600    -1.0480    -0.6790 hc         1 5UW       0.053700
     43 H21          3.7900    -3.4810    -0.8460 hn         1 5UW       0.352800
     44 H23          4.8580    -4.6030     2.4840 hc         1 5UW       0.054950
     45 H24          5.8270    -5.3460     1.1990 hc         1 5UW       0.054950
     46 H25          5.2360    -7.0140     2.9180 h1         1 5UW       0.030450
     47 H26          3.5160    -6.6640     2.6720 h1         1 5UW       0.030450
     48 H27          4.2660    -8.5760     1.4400 hn         1 5UW       0.351800
@<TRIPOS>BOND
     1     1    16 ar  
     2     1    15 ar  
     3    16    17 ar  
     4    22     5 1   
     5    22    21 1   
     6     5     6 1   
     7    15    14 ar  
     8     6     4 1   
     9    17     2 ar  
    10    21    20 1   
    11    20     4 1   
    12    14     2 ar  
    13    14     7 1   
    14    18     7 1   
    15    18     3 1   
    16     4    19 1   
    17    19     3 1   
    18     7     8 1   
    19     8    13 ar  
    20     8     9 ar  
    21    13    12 ar  
    22     9    10 ar  
    23    12    11 ar  
    24    10    11 ar  
    25     1    23 1   
    26     2    24 1   
    27     3    25 1   
    28     3    26 1   
    29     4    27 1   
    30     5    28 1   
    31     5    29 1   
    32     6    30 1   
    33     6    31 1   
    34     7    32 1   
    35     9    33 1   
    36    10    34 1   
    37    11    35 1   
    38    12    36 1   
    39    13    37 1   
    40    15    38 1   
    41    16    39 1   
    42    17    40 1   
    43    18    41 1   
    44    18    42 1   
    45    19    43 1   
    46    20    44 1   
    47    20    45 1   
    48    21    46 1   
    49    21    47 1   
    50    22    48 1   
@<TRIPOS>SUBSTRUCTURE
     1 5UW         1 TEMP              0 ****  ****    0 ROOT
