@<TRIPOS>MOLECULE
5UW
   48    50     1     0     0
SMALL
bcc


@<TRIPOS>ATOM
      1 C10          0.0000     0.0000     0.0000 ca         1 5UW      -0.097250
      2 C13          1.3830    -0.0010     2.3940 ca         1 5UW      -0.103000
      3 C15          3.6870    -2.4810     0.9230 c3         1 5UW       0.131800
      4 C17          3.8050    -4.8820     0.6300 c3         1 5UW       0.115500
      5 C21          3.4240    -7.2930     0.1020 c3         1 5UW       0.149800
      6 C22          3.7510    -5.9210    -0.4930 c3         1 5UW      -0.026900
      7 C01          3.5810     0.0000     1.1970 c3         1 5UW       0.065900
      8 C02          4.0830     1.3160     0.6620 ca         1 5UW      -0.080300
      9 C03          4.7440     2.1960     1.4990 ca         1 5UW      -0.103000
     10 C04          5.2040     3.4030     1.0080 ca         1 5UW      -0.097250
     11 C05          5.0050     3.7310    -0.3200 ca         1 5UW      -0.104500
     12 C06          4.3450     2.8500    -1.1570 ca         1 5UW      -0.097250
     13 C07          3.8880     1.6410    -0.6670 ca         1 5UW      -0.103000
     14 C08          2.0740     0.0000     1.1970 ca         1 5UW      -0.080300
     15 C09          1.3820     0.0000     0.0000 ca         1 5UW      -0.103000
     16 C11         -0.6910    -0.0000     1.1970 ca         1 5UW      -0.104500
     17 C12          0.0010    -0.0000     2.3950 ca         1 5UW      -0.097250
     18 C14          4.0910    -1.1390     0.3110 c3         1 5UW      -0.031400
     19 N16          4.1760    -3.5740     0.0730 n7         1 5UW      -0.581200
     20 C18          4.8490    -5.3120     1.6650 c3         1 5UW      -0.026900
     21 C19          4.4900    -6.7010     2.1980 c3         1 5UW       0.149800
     22 N20          4.4540    -7.6590     1.0850 n7         1 5UW      -0.578200
     23 H1          -0.5420    -0.0000    -0.9380 ha         1 5UW       0.101750
     24 H2           1.9250    -0.0010     3.3320 ha         1 5UW       0.109750
     25 H3           2.6070    -2.5350     0.9940 h1         1 5UW       0.013200
     26 H4           4.1190    -2.5720     1.9120 h1         1 5UW       0.013200
     27 H5           2.8340    -4.8150     1.1050 h1         1 5UW       0.009700
     28 H6           2.4580    -7.2520     0.5910 h1         1 5UW       0.003700
     29 H7           3.4030    -8.0320    -0.6890 h1         1 5UW       0.003700
     30 H8           4.7120    -5.9640    -0.9900 hc         1 5UW       0.025950
     31 H9           2.9820    -5.6440    -1.2030 hc         1 5UW       0.025950
     32 H10          3.9420    -0.1400     2.2080 hc         1 5UW       0.035700
     33 H11          4.9000     1.9400     2.5400 ha         1 5UW       0.109750
     34 H12          5.7220     4.0930     1.6640 ha         1 5UW       0.101750
     35 H13          5.3650     4.6780    -0.7040 ha         1 5UW       0.102000
     36 H14          4.1900     3.1060    -2.1980 ha         1 5UW       0.101750
     37 H15          3.3710     0.9510    -1.3230 ha         1 5UW       0.109750
     38 H16          1.9240     0.0000    -0.9380 ha         1 5UW       0.109750
     39 H17         -1.7750     0.0000     1.1970 ha         1 5UW       0.102000
     40 H18         -0.5400    -0.0000     3.3330 ha         1 5UW       0.101750
     41 H19          5.1710    -1.0850     0.2400 hc         1 5UW       0.027700
     42 H20          3.6600    -1.0480    -0.6790 hc         1 5UW       0.027700
     43 H21          3.7900    -3.4810    -0.8460 hn         1 5UW       0.254800
     44 H23          4.8580    -4.6030     2.4840 hc         1 5UW       0.025950
     45 H24          5.8270    -5.3460     1.1990 hc         1 5UW       0.025950
     46 H25          5.2360    -7.0140     2.9180 h1         1 5UW       0.003700
     47 H26          3.5160    -6.6640     2.6720 h1         1 5UW       0.003700
     48 H27          4.2660    -8.5760     1.4400 hn         1 5UW       0.249800
@<TRIPOS>BOND
     1     1    15 ar  
     2     1    16 ar  
     3     1    23 1   
     4     2    14 ar  
     5     2    17 ar  
     6     2    24 1   
     7     3    18 1   
     8     3    19 1   
     9     3    25 1   
    10     3    26 1   
    11     4     6 1   
    12     4    19 1   
    13     4    20 1   
    14     4    27 1   
    15     5     6 1   
    16     5    22 1   
    17     5    28 1   
    18     5    29 1   
    19     6    30 1   
    20     6    31 1   
    21     7     8 1   
    22     7    14 1   
    23     7    18 1   
    24     7    32 1   
    25     8     9 ar  
    26     8    13 ar  
    27     9    10 ar  
    28     9    33 1   
    29    10    11 ar  
    30    10    34 1   
    31    11    12 ar  
    32    11    35 1   
    33    12    13 ar  
    34    12    36 1   
    35    13    37 1   
    36    14    15 ar  
    37    15    38 1   
    38    16    17 ar  
    39    16    39 1   
    40    17    40 1   
    41    18    41 1   
    42    18    42 1   
    43    19    43 1   
    44    20    21 1   
    45    20    44 1   
    46    20    45 1   
    47    21    22 1   
    48    21    46 1   
    49    21    47 1   
    50    22    48 1   
@<TRIPOS>SUBSTRUCTURE
     1 5UW         1 TEMP              0 ****  ****    0 ROOT
