@<TRIPOS>MOLECULE
5UX
   39    42     1     0     0
SMALL
bcc


@<TRIPOS>ATOM
      1 C10          0.0000     0.0000     0.0000 ca         1 5UX      -0.174600
      2 C13          1.3560    -1.1290     2.2050 c3         1 5UX      -0.028400
      3 C15          1.5070     0.0000     0.0000 c3         1 5UX       0.032900
      4 C17         -2.7520    -0.0210    -0.0320 ca         1 5UX       0.384600
      5 C21         -4.1340     0.6930    -2.3360 ca         1 5UX      -0.091000
      6 C22         -2.7710     0.7180    -2.3550 ca         1 5UX      -0.076000
      7 C24          0.1270    -1.5650    -3.0370 ca         1 5UX      -0.160000
      8 C02          0.4540    -2.5100    -3.9900 ca         1 5UX      -0.023600
      9 C03          1.0730    -2.1230    -5.1690 ca         1 5UX       0.054900
     10 F04          1.3910    -3.0490    -6.1000 f          1 5UX      -0.123900
     11 C05          1.3650    -0.7880    -5.3920 ca         1 5UX      -0.073000
     12 C06          1.0400     0.1610    -4.4420 ca         1 5UX      -0.161000
     13 C07          0.4150    -0.2240    -3.2630 ca         1 5UX       0.049600
     14 C09         -0.6430     0.3680    -1.1780 ca         1 5UX       0.020600
     15 C11         -0.7490    -0.3560     1.1080 ca         1 5UX       0.399600
     16 C12         -0.1080    -0.7470     2.4170 c3         1 5UX      -0.068700
     17 C14          2.0430     0.0000     1.4290 c3         1 5UX      -0.027400
     18 N16         -2.0700    -0.3590     1.0630 nb         1 5UX      -0.560000
     19 C18         -4.1580    -0.0350    -0.0490 ca         1 5UX      -0.138300
     20 C19         -4.8240     0.3170    -1.1850 ca         1 5UX      -0.028600
     21 Cl20        -6.5590     0.2970    -1.1970 cl         1 5UX      -0.020400
     22 C23         -2.0560     0.3600    -1.2040 ca         1 5UX      -0.151300
     23 H1           1.8400    -1.2580     3.1650 hc         1 5UX       0.020200
     24 H2           1.4130    -2.0480     1.6350 hc         1 5UX       0.020200
     25 H3           1.8630     0.8850    -0.5140 hc         1 5UX       0.027700
     26 H4           1.8630    -0.8850    -0.5140 hc         1 5UX       0.027700
     27 H5          -4.6870     0.9680    -3.2260 ha         1 5UX       0.116000
     28 H6          -2.2450     1.0120    -3.2540 ha         1 5UX       0.115000
     29 H7          -0.3600    -1.8670    -2.1180 ha         1 5UX       0.136000
     30 H8           1.8500    -0.4870    -6.3130 ha         1 5UX       0.119000
     31 H9           1.2670     1.2050    -4.6190 ha         1 5UX       0.113000
     32 H10          0.3560     1.6890    -2.4310 hn         1 5UX       0.294800
     33 H11         -0.6390    -1.5940     2.8340 hc         1 5UX       0.031700
     34 H12         -0.1620     0.0890     3.1030 hc         1 5UX       0.031700
     35 H13          1.8240     0.9510     1.9000 hc         1 5UX       0.018700
     36 H14          3.1140    -0.1680     1.4160 hc         1 5UX       0.018700
     37 H15         -4.7090    -0.3250     0.8370 ha         1 5UX       0.130000
     38 N08          0.0850     0.7340    -2.3000 nu         1 5UX      -0.259000
     39 Cl01         0.0890    -4.1840    -3.7130 cl         1 5UX       0.002600
@<TRIPOS>BOND
     1     1     3 1   
     2     1    14 ar  
     3     1    15 ar  
     4     2    16 1   
     5     2    17 1   
     6     2    23 1   
     7     2    24 1   
     8     3    17 1   
     9     3    25 1   
    10     3    26 1   
    11     4    18 ar  
    12     4    19 ar  
    13     4    22 ar  
    14     5     6 ar  
    15     5    20 ar  
    16     5    27 1   
    17     6    22 ar  
    18     6    28 1   
    19     7     8 ar  
    20     7    13 ar  
    21     7    29 1   
    22     8     9 ar  
    23     8    39 1   
    24     9    10 1   
    25     9    11 ar  
    26    11    12 ar  
    27    11    30 1   
    28    12    13 ar  
    29    12    31 1   
    30    13    38 1   
    31    14    22 ar  
    32    14    38 1   
    33    15    16 1   
    34    15    18 ar  
    35    16    33 1   
    36    16    34 1   
    37    17    35 1   
    38    17    36 1   
    39    19    20 ar  
    40    19    37 1   
    41    20    21 1   
    42    32    38 1   
@<TRIPOS>SUBSTRUCTURE
     1 5UX         1 TEMP              0 ****  ****    0 ROOT
