@<TRIPOS>MOLECULE
molecule
   39    42     1     0     0
SMALL
bcc


@<TRIPOS>ATOM
      1 C10          0.0000     0.0000     0.0000 ca         1 5UX      -0.191600
      2 C13          1.3560    -1.1290     2.2050 c3         1 5UX      -0.084400
      3 C15          1.5070     0.0000     0.0000 c3         1 5UX      -0.028100
      4 C17         -2.7520    -0.0210    -0.0320 ca         1 5UX       0.434600
      5 C21         -4.1340     0.6930    -2.3360 ca         1 5UX      -0.124000
      6 C22         -2.7710     0.7180    -2.3550 ca         1 5UX      -0.095000
      7 C24          0.1270    -1.5650    -3.0370 ca         1 5UX      -0.169000
      8 C02          0.4540    -2.5100    -3.9900 ca         1 5UX       0.030400
      9 C03          1.0730    -2.1230    -5.1690 ca         1 5UX       0.090900
     10 F04          1.3910    -3.0490    -6.1000 f          1 5UX      -0.130900
     11 C05          1.3650    -0.7880    -5.3920 ca         1 5UX      -0.115000
     12 C06          1.0400     0.1610    -4.4420 ca         1 5UX      -0.180000
     13 C07          0.4150    -0.2240    -3.2630 ca         1 5UX       0.191600
     14 C09         -0.6430     0.3680    -1.1780 ca         1 5UX       0.173600
     15 C11         -0.7490    -0.3560     1.1080 ca         1 5UX       0.459600
     16 C12         -0.1080    -0.7470     2.4170 c3         1 5UX      -0.125700
     17 C14          2.0430     0.0000     1.4290 c3         1 5UX      -0.083400
     18 N16         -2.0700    -0.3590     1.0630 nb         1 5UX      -0.687000
     19 C18         -4.1580    -0.0350    -0.0490 ca         1 5UX      -0.161300
     20 C19         -4.8240     0.3170    -1.1850 ca         1 5UX       0.039400
     21 Cl20        -6.5590     0.2970    -1.1970 cl         1 5UX      -0.101400
     22 C23         -2.0560     0.3600    -1.2040 ca         1 5UX      -0.167300
     23 H1           1.8400    -1.2580     3.1650 hc         1 5UX       0.050200
     24 H2           1.4130    -2.0480     1.6350 hc         1 5UX       0.050200
     25 H3           1.8630     0.8850    -0.5140 hc         1 5UX       0.057700
     26 H4           1.8630    -0.8850    -0.5140 hc         1 5UX       0.057700
     27 H5          -4.6870     0.9680    -3.2260 ha         1 5UX       0.147000
     28 H6          -2.2450     1.0120    -3.2540 ha         1 5UX       0.146000
     29 H7          -0.3600    -1.8670    -2.1180 ha         1 5UX       0.161000
     30 H8           1.8500    -0.4870    -6.3130 ha         1 5UX       0.152000
     31 H9           1.2670     1.2050    -4.6190 ha         1 5UX       0.139000
     32 H10          0.3560     1.6890    -2.4310 hn         1 5UX       0.455800
     33 H11         -0.6390    -1.5940     2.8340 hc         1 5UX       0.067700
     34 H12         -0.1620     0.0890     3.1030 hc         1 5UX       0.067700
     35 H13          1.8240     0.9510     1.9000 hc         1 5UX       0.047700
     36 H14          3.1140    -0.1680     1.4160 hc         1 5UX       0.047700
     37 H15         -4.7090    -0.3250     0.8370 ha         1 5UX       0.164000
     38 N08          0.0850     0.7340    -2.3000 nu         1 5UX      -0.704000
     39 Cl01         0.0890    -4.1840    -3.7130 cl         1 5UX      -0.081400
@<TRIPOS>BOND
     1    10     9 1
     2    11     9 ar
     3    11    12 ar
     4     9     8 ar
     5    12    13 ar
     6    17     3 1
     7    17     2 1
     8     3     1 1
     9     8    39 1
    10     8     7 ar
    11    13     7 ar
    12    13    38 1
    13     2    16 1
    14    38    14 1
    15     1    14 ar
    16     1    15 ar
    17    16    15 1
    18    14    22 ar
    19    15    18 ar
    20    22     6 ar
    21    22     4 ar
    22    18     4 ar
    23     6     5 ar
    24     4    19 ar
    25     5    20 ar
    26    19    20 ar
    27    20    21 1
    28     2    23 1
    29     2    24 1
    30     3    25 1
    31     3    26 1
    32     5    27 1
    33     6    28 1
    34     7    29 1
    35    11    30 1
    36    12    31 1
    37    38    32 1
    38    16    33 1
    39    16    34 1
    40    17    35 1
    41    17    36 1
    42    19    37 1
@<TRIPOS>SUBSTRUCTURE
     1 5UX         1 TEMP              0 ****  ****    0 ROOT
