@<TRIPOS>MOLECULE
5UY
   46    48     1     0     0
SMALL
bcc


@<TRIPOS>ATOM
      1 C1           0.0000     0.0000     0.0000 ca         1 5UY       0.522200
      2 O1           3.3550     0.1060    -1.2580 o          1 5UY      -0.627000
      3 C2          -0.0610    -0.0010     2.3120 ca         1 5UY       0.521200
      4 O2           1.4860    -0.1170    -2.4380 os         1 5UY      -0.413900
      5 C3           1.3240    -0.0000     2.4020 ca         1 5UY      -0.393300
      6 C4           2.0790     0.0000     1.2360 ca         1 5UY       0.182600
      7 C5           4.1510    -0.1230     2.5730 c3         1 5UY       0.142800
      8 C6           5.6640    -0.0960     2.3470 c3         1 5UY       0.117100
      9 C7           7.4470    -1.2650     1.2550 c3         1 5UY       0.191400
     10 C8           8.1850    -1.4100     2.5890 c3         1 5UY       0.088800
     11 N1           3.4640     0.0000     1.2850 nu         1 5UY      -0.372600
     12 C9           6.3840    -0.2300     3.6910 c3         1 5UY       0.123800
     13 C13         -2.9590     0.2130     4.5660 ca         1 5UY       0.232900
     14 C10         -2.2020     0.1060     3.3970 ca         1 5UY       0.340900
     15 C11         -4.1190     0.2100     2.1410 ca         1 5UY       0.358900
     16 C12         -4.8740     0.3230     3.3090 ca         1 5UY       0.331000
     17 C14         -6.2990     0.4460     3.2320 cg         1 5UY       0.128800
     18 C16          2.2870    -0.1090    -3.6480 c3         1 5UY       0.257700
     19 N2           7.8350    -0.2810     3.4620 n7         1 5UY      -0.546200
     20 C            1.3970     0.0000     0.0000 ca         1 5UY      -0.374900
     21 O            6.0400    -1.1860     1.5010 os         1 5UY      -0.389600
     22 N           -0.6700    -0.0010     1.1310 nb         1 5UY      -0.676000
     23 N3          -0.8220    -0.0020     3.4720 nu         1 5UY      -0.391600
     24 N5          -4.2690     0.3170     4.4970 nb         1 5UY      -0.445000
     25 N4          -2.8050     0.1060     2.2140 nb         1 5UY      -0.543000
     26 N6          -7.4290     0.5480     3.1900 n1         1 5UY      -0.365800
     27 H1          -0.8110     0.0330    -0.7180 h4         1 5UY       0.006100
     28 H2           1.7930     0.1930     3.3600 ha         1 5UY       0.127000
     29 H3           3.9150    -0.9740     3.2000 h1         1 5UY       0.030200
     30 H4           4.2140     0.8140     3.1140 h1         1 5UY       0.030200
     31 H5           5.9480     0.8380     1.8780 h1         1 5UY       0.016700
     32 H6           7.8540    -0.3950     0.7560 h1         1 5UY       0.007700
     33 H7           7.7030    -2.0900     0.6010 h1         1 5UY       0.007700
     34 H8           8.3230    -2.4320     2.9220 h1         1 5UY       0.021200
     35 H9           9.2430    -1.3680     2.3600 h1         1 5UY       0.021200
     36 H10          4.0200     0.2570     0.4940 hn         1 5UY       0.356800
     37 H11          6.0500     0.7630     3.9660 h1         1 5UY       0.023200
     38 H12          5.9740    -0.7880     4.5250 h1         1 5UY       0.023200
     39 H13         -2.0870     0.5170     5.1330 h4         1 5UY       0.000100
     40 H14         -4.5470     0.1050     1.1510 h4         1 5UY      -0.000900
     41 H15          2.6390     0.9160    -3.6350 h1         1 5UY       0.004367
     42 H16          2.8930    -1.0060    -3.6900 h1         1 5UY       0.004367
     43 H17          1.8390    -0.3220    -4.6110 h1         1 5UY       0.004367
     44 H18          8.2820     0.5400     3.1050 hn         1 5UY       0.262800
     45 H20         -0.2120     0.2550     4.2230 hn         1 5UY       0.290800
     46 C15          2.1440     0.0010    -1.2670 c          1 5UY       0.762700
@<TRIPOS>BOND
     1     1    20 ar  
     2     1    22 ar  
     3     1    27 1   
     4     2    46 2   
     5     3     5 ar  
     6     3    22 ar  
     7     3    23 1   
     8     4    18 1   
     9     4    46 1   
    10     5     6 ar  
    11     5    28 1   
    12     6    11 1   
    13     6    20 ar  
    14     7     8 1   
    15     7    11 1   
    16     7    29 1   
    17     7    30 1   
    18     8    12 1   
    19     8    21 1   
    20     8    31 1   
    21     9    10 1   
    22     9    21 1   
    23     9    32 1   
    24     9    33 1   
    25    10    19 1   
    26    10    34 1   
    27    10    35 1   
    28    11    36 1   
    29    12    19 1   
    30    12    37 1   
    31    12    38 1   
    32    13    14 ar  
    33    13    24 ar  
    34    13    39 1   
    35    14    23 1   
    36    14    25 ar  
    37    15    16 ar  
    38    15    25 ar  
    39    15    40 1   
    40    16    17 1   
    41    16    24 ar  
    42    17    26 3   
    43    18    41 1   
    44    18    42 1   
    45    18    43 1   
    46    19    44 1   
    47    20    46 1   
    48    23    45 1   
@<TRIPOS>SUBSTRUCTURE
     1 5UY         1 TEMP              0 ****  ****    0 ROOT
