@<TRIPOS>MOLECULE
molecule
   31    32     1     0     0
SMALL
bcc


@<TRIPOS>ATOM
      1 N1           0.0000     0.0000     0.0000 nb         1 5V1      -0.706000
      2 C4           1.3170     0.0000     0.0000 ca         1 5V1       0.375200
      3 C5          -0.7000     0.0010     1.1180 ca         1 5V1       0.377600
      4 C6          -2.2050     0.0020     1.0520 c3         1 5V1       0.119500
      5 C7          -4.1550     1.4210     0.8420 c3         1 5V1       0.201100
      6 C8          -4.6130     2.8490     0.6950 ca         1 5V1      -0.073300
      7 C10         -5.3010     4.9170     1.6860 ca         1 5V1      -0.133500
      8 C13         -4.7720     3.3980    -0.5630 ca         1 5V1      -0.113500
      9 O1           1.4180     0.0030     4.7310 o          1 5V1      -0.831300
     10 C2           1.3270     0.0020     2.3960 ca         1 5V1      -0.073600
     11 C3           2.0270     0.0000     1.1850 ca         1 5V1      -0.215300
     12 N2          -2.6890     1.3810     0.9090 n7         1 5V1      -0.803200
     13 C9          -4.8810     3.6070     1.8200 ca         1 5V1      -0.113500
     14 C11         -5.4530     5.4690     0.4270 ca         1 5V1      -0.136000
     15 C12         -5.1910     4.7090    -0.6970 ca         1 5V1      -0.133500
     16 C14         -0.0720     0.0010     2.3470 ca         1 5V1      -0.221300
     17 O2           3.3900     0.0020     3.7150 o          1 5V1      -0.831300
     18 H1           1.8510    -0.0010    -0.9430 h4         1 5V1      -0.001900
     19 H2          -2.5290    -0.5850     0.2000 h1         1 5V1       0.034200
     20 H3          -2.6070    -0.4290     1.9610 h1         1 5V1       0.034200
     21 H4          -4.4940     0.8430    -0.0100 h1         1 5V1       0.031700
     22 H5          -4.5700     1.0000     1.7510 h1         1 5V1       0.031700
     23 H6          -5.5090     5.5130     2.5660 ha         1 5V1       0.122500
     24 H7          -4.5660     2.8030    -1.4440 ha         1 5V1       0.133500
     25 H8           3.1110     0.0000     1.1770 ha         1 5V1       0.158000
     26 H9          -2.3750     1.9270     1.6870 hn         1 5V1       0.362800
     27 H11         -4.7620     3.1750     2.8060 ha         1 5V1       0.133500
     28 H12         -5.7820     6.4950     0.3210 ha         1 5V1       0.120000
     29 H13         -5.3130     5.1400    -1.6830 ha         1 5V1       0.122500
     30 H14         -0.6530     0.0020     3.2610 ha         1 5V1       0.147000
     31 C1           2.0430     0.0020     3.6900 c          1 5V1       0.881200
@<TRIPOS>BOND
     1     9    31 1   
     2    31    17 1   
     3    31    10 1   
     4     7    13 ar  
     5     7    14 ar  
     6    11    10 ar  
     7    11     2 ar  
     8    10    16 ar  
     9    13     6 ar  
    10    14    15 ar  
    11     2     1 ar  
    12    16     3 ar  
    13     6     5 1   
    14     6     8 ar  
    15    15     8 ar  
    16     5    12 1   
    17     1     3 ar  
    18     3     4 1   
    19     4    12 1   
    20     2    18 1   
    21     4    19 1   
    22     4    20 1   
    23     5    21 1   
    24     5    22 1   
    25     7    23 1   
    26     8    24 1   
    27    11    25 1   
    28    12    26 1   
    29    13    27 1   
    30    14    28 1   
    31    15    29 1   
    32    16    30 1   
@<TRIPOS>SUBSTRUCTURE
     1 5V1         1 TEMP              0 ****  ****    0 ROOT
