@<TRIPOS>MOLECULE
5V1
   31    32     1     0     0
SMALL
bcc


@<TRIPOS>ATOM
      1 N1           0.0000     0.0000     0.0000 nb         1 5V1      -0.592000
      2 C4           1.3170     0.0000     0.0000 ca         1 5V1       0.349200
      3 C5          -0.7000     0.0010     1.1180 ca         1 5V1       0.316600
      4 C6          -2.2050     0.0020     1.0520 c3         1 5V1       0.108500
      5 C7          -4.1550     1.4210     0.8420 c3         1 5V1       0.198100
      6 C8          -4.6130     2.8490     0.6950 ca         1 5V1      -0.081300
      7 C10         -5.3010     4.9170     1.6860 ca         1 5V1      -0.107000
      8 C13         -4.7720     3.3980    -0.5630 ca         1 5V1      -0.086500
      9 O1           1.4180     0.0030     4.7310 o          1 5V1      -0.879300
     10 C2           1.3270     0.0020     2.3960 ca         1 5V1      -0.075600
     11 C3           2.0270     0.0000     1.1850 ca         1 5V1      -0.181300
     12 N2          -2.6890     1.3810     0.9090 n7         1 5V1      -0.573200
     13 C9          -4.8810     3.6070     1.8200 ca         1 5V1      -0.086500
     14 C11         -5.4530     5.4690     0.4270 ca         1 5V1      -0.111000
     15 C12         -5.1910     4.7090    -0.6970 ca         1 5V1      -0.107000
     16 C14         -0.0720     0.0010     2.3470 ca         1 5V1      -0.188300
     17 O2           3.3900     0.0020     3.7150 o          1 5V1      -0.879300
     18 H1           1.8510    -0.0010    -0.9430 h4         1 5V1      -0.039900
     19 H2          -2.5290    -0.5850     0.2000 h1         1 5V1       0.004700
     20 H3          -2.6070    -0.4290     1.9610 h1         1 5V1       0.004700
     21 H4          -4.4940     0.8430    -0.0100 h1         1 5V1       0.004200
     22 H5          -4.5700     1.0000     1.7510 h1         1 5V1       0.004200
     23 H6          -5.5090     5.5130     2.5660 ha         1 5V1       0.096500
     24 H7          -4.5660     2.8030    -1.4440 ha         1 5V1       0.107500
     25 H8           3.1110     0.0000     1.1770 ha         1 5V1       0.134000
     26 H9          -2.3750     1.9270     1.6870 hn         1 5V1       0.260800
     27 H11         -4.7620     3.1750     2.8060 ha         1 5V1       0.107500
     28 H12         -5.7820     6.4950     0.3210 ha         1 5V1       0.095000
     29 H13         -5.3130     5.1400    -1.6830 ha         1 5V1       0.096500
     30 H14         -0.6530     0.0020     3.2610 ha         1 5V1       0.126000
     31 C1           2.0430     0.0020     3.6900 c          1 5V1       0.973200
@<TRIPOS>BOND
     1     1     2 ar  
     2     1     3 ar  
     3     2    11 ar  
     4     2    18 1   
     5     3     4 1   
     6     3    16 ar  
     7     4    12 1   
     8     4    19 1   
     9     4    20 1   
    10     5     6 1   
    11     5    12 1   
    12     5    21 1   
    13     5    22 1   
    14     6     8 ar  
    15     6    13 ar  
    16     7    13 ar  
    17     7    14 ar  
    18     7    23 1   
    19     8    15 ar  
    20     8    24 1   
    21     9    31 1   
    22    10    11 ar  
    23    10    16 ar  
    24    10    31 1   
    25    11    25 1   
    26    12    26 1   
    27    13    27 1   
    28    14    15 ar  
    29    14    28 1   
    30    15    29 1   
    31    16    30 1   
    32    17    31 1   
@<TRIPOS>SUBSTRUCTURE
     1 5V1         1 TEMP              0 ****  ****    0 ROOT
