@<TRIPOS>MOLECULE
molecule
   52    55     1     0     0
SMALL
bcc


@<TRIPOS>ATOM
      1 C01          0.0000     0.0000     0.0000 c3         1 5V2       0.086300
      2 N05          1.4650     0.0000     0.0000 n          1 5V2      -0.332000
      3 C06          2.1210     0.0000     1.1910 cc         1 5V2       0.028600
      4 C08          3.4780     0.0010     1.2520 cd         1 5V2      -0.101400
      5 C09          4.1640     0.0000     2.5660 ca         1 5V2      -0.048800
      6 C10          4.9400    -1.0920     2.9510 ca         1 5V2      -0.088000
      7 C12          5.5770    -1.0870     4.1750 ca         1 5V2      -0.132000
      8 C14          5.4460    -0.0000     5.0200 ca         1 5V2      -0.080000
      9 C16          4.6760     1.0870     4.6450 ca         1 5V2      -0.180300
     10 C17          4.0400     1.0950     3.4200 ca         1 5V2      -0.070000
     11 C19          4.5380     2.2660     5.5720 c3         1 5V2       0.674200
     12 F20          5.2720     2.0300     6.7410 f          1 5V2      -0.222633
     13 F21          5.0240     3.4160     4.9400 f          1 5V2      -0.222633
     14 F22          3.1900     2.4480     5.8980 f          1 5V2      -0.222633
     15 C23          4.2610     0.0010     0.0110 cd         1 5V2       0.072100
     16 S24          5.9950     0.0020    -0.2710 ss         1 5V2      -0.110800
     17 C25          5.7600     0.0020    -2.0110 cd         1 5V2      -0.107000
     18 C26          4.4550     0.0010    -2.3070 cc         1 5V2      -0.028000
     19 C28          3.5870     0.0000    -1.2110 cc         1 5V2      -0.196600
     20 C29          2.1130    -0.0050    -1.1750 c          1 5V2       0.717100
     21 O30          1.4800    -0.0100    -2.2170 o          1 5V2      -0.625500
     22 C31          6.8450     0.0020    -3.0050 cf         1 5V2       0.728800
     23 N32          6.5640     0.0020    -4.2790 n2         1 5V2      -0.878100
     24 N34          8.1620     0.0020    -2.5880 nu         1 5V2      -0.926200
     25 C36          9.2430     0.0030    -3.5770 c3         1 5V2       0.224500
     26 C38         10.4950     0.6110    -2.9530 c3         1 5V2      -0.082900
     27 C41         11.5510     0.8560    -4.0340 c3         1 5V2      -0.200100
     28 S44         12.0540    -0.7400    -4.7420 s6         1 5V2       1.098000
     29 O45         12.8250    -0.4960    -5.9100 o          1 5V2      -0.609300
     30 O46         12.5960    -1.5470    -3.7050 o          1 5V2      -0.609300
     31 C47         10.4480    -1.4290    -5.2390 c3         1 5V2      -0.200100
     32 C50          9.5090    -1.4300    -4.0310 c3         1 5V2      -0.082900
     33 H011        -0.3610     0.8790    -0.5200 h1         1 5V2       0.058033
     34 H012        -0.3610     0.0110     1.0210 h1         1 5V2       0.058033
     35 H013        -0.3610    -0.8900    -0.5010 h1         1 5V2       0.058033
     36 H06          1.5500    -0.0020     2.1120 h4         1 5V2       0.165000
     37 H10          5.0430    -1.9430     2.2890 ha         1 5V2       0.145000
     38 H17          3.4380     1.9470     3.1270 ha         1 5V2       0.149000
     39 H12          6.1800    -1.9350     4.4740 ha         1 5V2       0.143000
     40 H14          5.9450    -0.0020     5.9820 ha         1 5V2       0.152000
     41 H26          4.0950     0.0010    -3.3290 ha         1 5V2       0.193000
     42 H32          7.3020     0.0020    -4.9550 hn         1 5V2       0.398400
     43 H34          8.3780     0.0030    -1.6110 hn         1 5V2       0.434800
     44 H36          8.9480     0.5970    -4.4330 h1         1 5V2       0.062700
     45 H381        10.2390     1.5530    -2.4830 hc         1 5V2       0.071450
     46 H382        10.8930    -0.0710    -2.2120 hc         1 5V2       0.071450
     47 H501         9.9690    -1.9820    -3.2210 hc         1 5V2       0.071450
     48 H502         8.5720    -1.8980    -4.3060 hc         1 5V2       0.071450
     49 H411        12.4130     1.3430    -3.5930 h1         1 5V2       0.105450
     50 H412        11.1330     1.4820    -4.8130 h1         1 5V2       0.105450
     51 H471        10.0220    -0.8200    -6.0280 h1         1 5V2       0.105450
     52 H472        10.5840    -2.4440    -5.5920 h1         1 5V2       0.105450
@<TRIPOS>BOND
     1     1     2 1
     2     2     3 1
     3     2    20 1
     4     3     4 2
     5     4     5 1
     6     4    15 1
     7     5     6 ar
     8     5    10 ar
     9     6     7 ar
    10     7     8 ar
    11     8     9 ar
    12     9    10 ar
    13     9    11 1
    14    11    12 1
    15    11    13 1
    16    11    14 1
    17    15    16 1
    18    15    19 2
    19    16    17 1
    20    17    18 2
    21    17    22 1
    22    18    19 1
    23    19    20 1
    24    20    21 2
    25    22    23 2
    26    22    24 1
    27    24    25 1
    28    25    26 1
    29    25    32 1
    30    26    27 1
    31    27    28 1
    32    28    29 2
    33    28    30 2
    34    28    31 1
    35    31    32 1
    36     1    33 1
    37     1    34 1
    38     1    35 1
    39     3    36 1
    40     6    37 1
    41    10    38 1
    42     7    39 1
    43     8    40 1
    44    18    41 1
    45    23    42 1
    46    24    43 1
    47    25    44 1
    48    26    45 1
    49    26    46 1
    50    32    47 1
    51    32    48 1
    52    27    49 1
    53    27    50 1
    54    31    51 1
    55    31    52 1
@<TRIPOS>SUBSTRUCTURE
     1 5V2         1 TEMP              0 ****  ****    0 ROOT
