@<TRIPOS>MOLECULE
5V3
   34    36     1     0     0
SMALL
bcc


@<TRIPOS>ATOM
      1 C10          0.0000     0.0000     0.0000 ca         1 5V3       0.323600
      2 C13          1.3230     0.0000     2.4100 ca         1 5V3      -0.109300
      3 C01         -1.7290    -1.4250    -3.0020 c3         1 5V3       0.205100
      4 C02         -1.9610    -2.8580    -3.4040 ca         1 5V3      -0.102300
      5 C03         -3.1050    -3.5160    -2.9910 ca         1 5V3      -0.086500
      6 C04         -3.3170    -4.8320    -3.3600 ca         1 5V3      -0.099000
      7 C05         -2.3850    -5.4880    -4.1430 ca         1 5V3      -0.096000
      8 C06         -1.2420    -4.8300    -4.5570 ca         1 5V3      -0.099000
      9 C07         -1.0320    -3.5140    -4.1920 ca         1 5V3      -0.086500
     10 N08         -0.9960    -1.3860    -1.7300 n7         1 5V3      -0.592200
     11 C09         -0.7520    -0.0010    -1.3050 c3         1 5V3       0.101500
     12 C11          1.3890     0.0000     0.0000 ca         1 5V3      -0.097700
     13 C12          2.0680     0.0000     1.2330 ca         1 5V3      -0.198600
     14 C14         -0.0540     0.0100     2.3140 ca         1 5V3       0.359200
     15 N15         -0.6590     0.0040     1.1400 nb         1 5V3      -0.526000
     16 C16          3.5410     0.0000     1.2150 c          1 5V3       0.727100
     17 N17          4.1550    -0.0000     0.0160 nc         1 5V3      -0.634100
     18 C18          3.4800    -0.0000    -1.1020 cd         1 5V3       0.514100
     19 N19          2.1370    -0.0000    -1.1580 na         1 5V3      -0.198600
     20 O20          4.1830     0.0010     2.2500 o          1 5V3      -0.568100
     21 H1           1.8120     0.0050     3.3770 ha         1 5V3       0.137000
     22 H2          -1.1500    -0.9240    -3.7680 h1         1 5V3       0.009200
     23 H3          -2.6830    -0.9240    -2.8850 h1         1 5V3       0.009200
     24 H4          -3.8340    -3.0010    -2.3780 ha         1 5V3       0.104000
     25 H5          -4.2130    -5.3470    -3.0370 ha         1 5V3       0.104000
     26 H6          -2.5510    -6.5190    -4.4310 ha         1 5V3       0.103000
     27 H7          -0.5140    -5.3450    -5.1720 ha         1 5V3       0.104000
     28 H8          -0.1360    -2.9980    -4.5160 ha         1 5V3       0.104000
     29 H9          -1.5240    -1.8630    -1.0260 hn         1 5V3       0.272800
     30 H11         -0.1670     0.5110    -2.0600 h1         1 5V3       0.015200
     31 H12         -1.6990     0.5090    -1.1760 h1         1 5V3       0.015200
     32 H13         -0.6490     0.0140     3.2190 h4         1 5V3      -0.012900
     33 H14          4.0320    -0.0010    -2.0340 h5         1 5V3       0.002800
     34 H15          1.6770    -0.0000    -2.0460 hn         1 5V3       0.298800
@<TRIPOS>BOND
     1     1    11 1   
     2     1    12 ar  
     3     1    15 ar  
     4     2    13 ar  
     5     2    14 ar  
     6     2    21 1   
     7     3     4 1   
     8     3    10 1   
     9     3    22 1   
    10     3    23 1   
    11     4     5 ar  
    12     4     9 ar  
    13     5     6 ar  
    14     5    24 1   
    15     6     7 ar  
    16     6    25 1   
    17     7     8 ar  
    18     7    26 1   
    19     8     9 ar  
    20     8    27 1   
    21     9    28 1   
    22    10    11 1   
    23    10    29 1   
    24    11    30 1   
    25    11    31 1   
    26    12    13 ar  
    27    12    19 1   
    28    13    16 1   
    29    14    15 ar  
    30    14    32 1   
    31    16    17 1   
    32    16    20 2   
    33    17    18 2   
    34    18    19 1   
    35    18    33 1   
    36    19    34 1   
@<TRIPOS>SUBSTRUCTURE
     1 5V3         1 TEMP              0 ****  ****    0 ROOT
