@<TRIPOS>MOLECULE
molecule
   34    36     1     0     0
SMALL
bcc


@<TRIPOS>ATOM
      1 C10          0.0000     0.0000     0.0000 ca         1 5V3       0.383600
      2 C13          1.3230     0.0000     2.4100 ca         1 5V3      -0.157300
      3 C01         -1.7290    -1.4250    -3.0020 c3         1 5V3       0.204100
      4 C02         -1.9610    -2.8580    -3.4040 ca         1 5V3      -0.090300
      5 C03         -3.1050    -3.5160    -2.9910 ca         1 5V3      -0.114000
      6 C04         -3.3170    -4.8320    -3.3600 ca         1 5V3      -0.127000
      7 C05         -2.3850    -5.4880    -4.1430 ca         1 5V3      -0.122000
      8 C06         -1.2420    -4.8300    -4.5570 ca         1 5V3      -0.127000
      9 C07         -1.0320    -3.5140    -4.1920 ca         1 5V3      -0.114000
     10 N08         -0.9960    -1.3860    -1.7300 n7         1 5V3      -0.820200
     11 C09         -0.7520    -0.0010    -1.3050 c3         1 5V3       0.111500
     12 C11          1.3890     0.0000     0.0000 ca         1 5V3       0.057300
     13 C12          2.0680     0.0000     1.2330 ca         1 5V3      -0.192600
     14 C14         -0.0540     0.0100     2.3140 ca         1 5V3       0.383200
     15 N15         -0.6590     0.0040     1.1400 nb         1 5V3      -0.654000
     16 C16          3.5410     0.0000     1.2150 c          1 5V3       0.720100
     17 N17          4.1550    -0.0000     0.0160 nc         1 5V3      -0.722100
     18 C18          3.4800    -0.0000    -1.1020 cd         1 5V3       0.696100
     19 N19          2.1370    -0.0000    -1.1580 na         1 5V3      -0.695600
     20 O20          4.1830     0.0010     2.2500 o          1 5V3      -0.530100
     21 H1           1.8120     0.0050     3.3770 ha         1 5V3       0.169000
     22 H2          -1.1500    -0.9240    -3.7680 h1         1 5V3       0.038200
     23 H3          -2.6830    -0.9240    -2.8850 h1         1 5V3       0.038200
     24 H4          -3.8340    -3.0010    -2.3780 ha         1 5V3       0.129500
     25 H5          -4.2130    -5.3470    -3.0370 ha         1 5V3       0.131500
     26 H6          -2.5510    -6.5190    -4.4310 ha         1 5V3       0.131000
     27 H7          -0.5140    -5.3450    -5.1720 ha         1 5V3       0.131500
     28 H8          -0.1360    -2.9980    -4.5160 ha         1 5V3       0.129500
     29 H9          -1.5240    -1.8630    -1.0260 hn         1 5V3       0.375800
     30 H11         -0.1670     0.5110    -2.0600 h1         1 5V3       0.045700
     31 H12         -1.6990     0.5090    -1.1760 h1         1 5V3       0.045700
     32 H13         -0.6490     0.0140     3.2190 h4         1 5V3       0.032100
     33 H14          4.0320    -0.0010    -2.0340 h5         1 5V3       0.056800
     34 H15          1.6770    -0.0000    -2.0460 hn         1 5V3       0.461800
@<TRIPOS>BOND
     1    14     2 ar  
     2    14    15 ar  
     3     2    13 ar  
     4    20    16 2   
     5    15     1 ar  
     6    13    16 1   
     7    13    12 ar  
     8    16    17 1   
     9     1    12 ar  
    10     1    11 1   
    11    12    19 1   
    12    17    18 2   
    13    11    10 1   
    14    19    18 1   
    15    10     3 1   
    16     3     4 1   
    17     4     5 ar  
    18     4     9 ar  
    19     5     6 ar  
    20     9     8 ar  
    21     6     7 ar  
    22     8     7 ar  
    23     2    21 1   
    24     3    22 1   
    25     3    23 1   
    26     5    24 1   
    27     6    25 1   
    28     7    26 1   
    29     8    27 1   
    30     9    28 1   
    31    10    29 1   
    32    11    30 1   
    33    11    31 1   
    34    14    32 1   
    35    18    33 1   
    36    19    34 1   
@<TRIPOS>SUBSTRUCTURE
     1 5V3         1 TEMP              0 ****  ****    0 ROOT
