@<TRIPOS>MOLECULE
molecule
   28    29     1     0     0
SMALL
bcc


@<TRIPOS>ATOM
      1 C1           0.0000     0.0000     0.0000 c3         1 5V5      -0.150100
      2 C2           1.5080     0.0000     0.0000 ca         1 5V5      -0.039300
      3 C3           2.1970     0.0000     1.2010 ca         1 5V5      -0.077000
      4 O2          -1.8220     1.6650    -0.0010 o          1 5V5      -0.843300
      5 C11          5.8200     0.3190    -4.4680 cc         1 5V5      -0.105100
      6 C12          2.1950    -0.0060    -1.1960 ca         1 5V5      -0.066000
      7 O            0.2830     2.3390    -0.0000 o          1 5V5      -0.843300
      8 C           -0.5020     1.4200     0.0000 c          1 5V5       0.891600
      9 C4           3.5790     0.0000     1.2120 ca         1 5V5      -0.222000
     10 C5           4.2830     0.0000     0.0200 ca         1 5V5       0.115100
     11 C6           6.2810     0.0010     1.3090 c3         1 5V5       0.133700
     12 C7           3.5900    -0.0060    -1.1960 ca         1 5V5      -0.063000
     13 C8           4.3320    -0.0130    -2.4740 cc         1 5V5       0.088900
     14 C9           4.1120    -0.8610    -3.4990 cd         1 5V5      -0.183000
     15 C10          4.9330    -0.6730    -4.5910 cd         1 5V5      -0.134000
     16 S            5.6400     1.0860    -2.8950 ss         1 5V5      -0.175800
     17 H1          -0.3610    -0.5110    -0.8850 hc         1 5V5       0.039200
     18 H2          -0.3610    -0.5110     0.8840 hc         1 5V5       0.039200
     19 H3           1.6500    -0.0000     2.1360 ha         1 5V5       0.131000
     20 H5           6.6110     0.7940    -5.0360 h4         1 5V5       0.157000
     21 H6           1.6530    -0.0100    -2.1340 ha         1 5V5       0.142000
     22 H7           4.1120     0.0000     2.1550 ha         1 5V5       0.118000
     23 H8           5.9890    -0.8860     1.8590 h1         1 5V5       0.032367
     24 H9           6.0400     0.8820     1.8910 h1         1 5V5       0.032367
     25 H10          7.3480    -0.0270     1.1200 h1         1 5V5       0.032367
     26 H11          3.3490    -1.6300    -3.4670 ha         1 5V5       0.148000
     27 H12          4.8650    -1.2840    -5.4830 ha         1 5V5       0.132000
     28 O1           5.6420     0.0010     0.0310 os         1 5V5      -0.332900
@<TRIPOS>BOND
     1     5    15 2   
     2     5    16 1   
     3    15    14 1   
     4    14    13 2   
     5    16    13 1   
     6    13    12 1   
     7    12     6 ar  
     8    12    10 ar  
     9    28    10 1   
    10    28    11 1   
    11     6     2 ar  
    12    10     9 ar  
    13     2     1 1   
    14     2     3 ar  
    15     9     3 ar  
    16     7     8 1   
    17     1     8 1   
    18     8     4 1   
    19     1    17 1   
    20     1    18 1   
    21     3    19 1   
    22     5    20 1   
    23     6    21 1   
    24     9    22 1   
    25    11    23 1   
    26    11    24 1   
    27    11    25 1   
    28    14    26 1   
    29    15    27 1   
@<TRIPOS>SUBSTRUCTURE
     1 5V5         1 TEMP              0 ****  ****    0 ROOT
