@<TRIPOS>MOLECULE
molecule
   28    29     1     0     0
SMALL
bcc


@<TRIPOS>ATOM
      1 C1           0.0000     0.0000     0.0000 c3         1 5V6      -0.150100
      2 C2           1.5070     0.0000     0.0000 ca         1 5V6      -0.038300
      3 C3           2.1950     0.0000     1.1970 ca         1 5V6      -0.071000
      4 O1           0.2820    -2.3390     0.0130 o          1 5V6      -0.843300
      5 C11          3.5790    -0.0080    -1.2090 ca         1 5V6      -0.222000
      6 C12          2.1970    -0.0070    -1.1990 ca         1 5V6      -0.082000
      7 C           -0.5030    -1.4200     0.0080 c          1 5V6       0.892600
      8 O           -1.8220    -1.6650     0.0090 o          1 5V6      -0.843300
      9 C4           3.5880    -0.0010     1.1990 ca         1 5V6      -0.064000
     10 C9           4.2820    -0.0020    -0.0160 ca         1 5V6       0.112100
     11 C10          6.2820    -0.0060    -1.3010 c3         1 5V6       0.131700
     12 C5           4.3320    -0.0000     2.4820 cc         1 5V6      -0.024000
     13 C6           5.3260    -0.8670     2.7490 cd         1 5V6      -0.034100
     14 S            5.9610    -0.5580     4.3590 ss         1 5V6      -0.240800
     15 C7           4.8210     0.7600     4.5940 cc         1 5V6      -0.098100
     16 C8           4.0630     0.9030     3.5100 cd         1 5V6      -0.130000
     17 H1          -0.3610     0.5160     0.8820 hc         1 5V6       0.039200
     18 H2          -0.3610     0.5060    -0.8870 hc         1 5V6       0.039200
     19 H3           1.6520     0.0010     2.1340 ha         1 5V6       0.140000
     20 H4           4.1130    -0.0140    -2.1510 ha         1 5V6       0.116000
     21 H5           1.6510    -0.0110    -2.1350 ha         1 5V6       0.130000
     22 H7           7.3560    -0.0030    -1.1650 h1         1 5V6       0.031700
     23 H8           5.9860    -0.9040    -1.8290 h1         1 5V6       0.031700
     24 H9           5.9880     0.8640    -1.8760 h1         1 5V6       0.031700
     25 H10          5.6800    -1.6390     2.0750 h4         1 5V6       0.181000
     26 H11          4.7470     1.3660     5.4890 h4         1 5V6       0.156000
     27 H12          3.4350     1.7800     3.6120 ha         1 5V6       0.147000
     28 O2           5.6410    -0.0030    -0.0230 os         1 5V6      -0.337900
@<TRIPOS>BOND
     1    14    15 1   
     2    14    13 1   
     3    15    16 2   
     4    13    12 2   
     5    16    12 1   
     6    12     9 1   
     7     9     3 ar  
     8     9    10 ar  
     9    28    10 1   
    10    28    11 1   
    11     3     2 ar  
    12    10     5 ar  
    13     2     1 1   
    14     2     6 ar  
    15     5     6 ar  
    16     1     7 1   
    17     4     7 1   
    18     7     8 1   
    19     1    17 1   
    20     1    18 1   
    21     3    19 1   
    22     5    20 1   
    23     6    21 1   
    24    11    22 1   
    25    11    23 1   
    26    11    24 1   
    27    13    25 1   
    28    15    26 1   
    29    16    27 1   
@<TRIPOS>SUBSTRUCTURE
     1 5V6         1 TEMP              0 ****  ****    0 ROOT
