@<TRIPOS>MOLECULE
molecule
   24    26     1     0     0
SMALL
bcc


@<TRIPOS>ATOM
      1 O            0.0000     0.0000     0.0000 o          1 5V7      -0.615500
      2 C9           1.2170     0.0000     0.0000 c          1 5V7       0.705100
      3 C6           1.9830     0.0000     1.2550 ca         1 5V7      -0.179600
      4 C5           1.3770     0.0010     2.5120 ca         1 5V7      -0.177300
      5 C4           2.1810     0.0000     3.6340 ca         1 5V7       0.399200
      6 N2           3.4970     0.0010     3.5400 nb         1 5V7      -0.666000
      7 N4           1.9230    -0.0060    -1.1550 ns         1 5V7      -0.476400
      8 C8           3.2810    -0.0060    -1.1350 cc         1 5V7       0.493800
      9 N3           3.9820    -0.0020    -0.0390 nd         1 5V7      -0.599100
     10 C7           3.3920    -0.0010     1.1770 ca         1 5V7       0.095100
     11 C3           4.1300    -0.0010     2.3760 ca         1 5V7       0.418300
     12 C1           5.6090    -0.0000     2.3360 cc         1 5V7       0.316300
     13 N1           6.2960    -0.4770     1.2970 nc         1 5V7      -0.653000
     14 C2           6.3580     0.4860     3.3450 cd         1 5V7      -0.121400
     15 S            8.0560     0.3020     2.9100 ss         1 5V7      -0.304300
     16 C            7.5880    -0.4240     1.3760 cd         1 5V7       0.723300
     17 N            8.4670    -0.8670     0.4010 nv         1 5V7      -1.026500
     18 H1           0.2970     0.0000     2.6050 ha         1 5V7       0.162000
     19 H2           1.7200     0.0010     4.6150 h4         1 5V7       0.031100
     20 H3           1.4400    -0.0100    -2.0320 hn         1 5V7       0.339500
     21 H4           3.8090    -0.0110    -2.0810 h5         1 5V7       0.058800
     22 H5           5.9820     0.9140     4.2660 h4         1 5V7       0.193000
     23 H6           8.6970    -1.8390     0.3390 hn         1 5V7       0.442800
     24 H7           8.8550    -0.2190    -0.2550 hn         1 5V7       0.442800
@<TRIPOS>BOND
     1     1     2 2
     2     4     5 ar
     3     4     3 ar
     4     5     6 ar
     5     2     3 1
     6     2     7 1
     7     3    10 ar
     8     6    11 ar
     9     7     8 1
    10    10    11 ar
    11    10     9 1
    12    11    12 1
    13     8     9 2
    14    12    13 1
    15    12    14 2
    16    13    16 2
    17    14    15 1
    18    16    15 1
    19    16    17 1
    20     4    18 1
    21     5    19 1
    22     7    20 1
    23     8    21 1
    24    14    22 1
    25    17    23 1
    26    17    24 1
@<TRIPOS>SUBSTRUCTURE
     1 5V7         1 TEMP              0 ****  ****    0 ROOT
