@<TRIPOS>MOLECULE
5V7
   24    26     1     0     0
SMALL
bcc


@<TRIPOS>ATOM
      1 O            0.0000     0.0000     0.0000 o          1 5V7      -0.657500
      2 C9           1.2170     0.0000     0.0000 c          1 5V7       0.615100
      3 C6           1.9830     0.0000     1.2550 ca         1 5V7      -0.193600
      4 C5           1.3770     0.0010     2.5120 ca         1 5V7      -0.133300
      5 C4           2.1810     0.0000     3.6340 ca         1 5V7       0.375200
      6 N2           3.4970     0.0010     3.5400 nb         1 5V7      -0.546000
      7 N4           1.9230    -0.0060    -1.1550 ns         1 5V7      -0.014400
      8 C8           3.2810    -0.0060    -1.1350 cc         1 5V7       0.319800
      9 N3           3.9820    -0.0020    -0.0390 nd         1 5V7      -0.494100
     10 C7           3.3920    -0.0010     1.1770 ca         1 5V7       0.059100
     11 C3           4.1300    -0.0010     2.3760 ca         1 5V7       0.356300
     12 C1           5.6090    -0.0000     2.3360 cc         1 5V7       0.265300
     13 N1           6.2960    -0.4770     1.2970 nc         1 5V7      -0.521000
     14 C2           6.3580     0.4860     3.3450 cd         1 5V7      -0.052400
     15 S            8.0560     0.3020     2.9100 ss         1 5V7      -0.396300
     16 C            7.5880    -0.4240     1.3760 cd         1 5V7       0.552300
     17 N            8.4670    -0.8670     0.4010 nv         1 5V7      -0.558500
     18 H1           0.2970     0.0000     2.6050 ha         1 5V7       0.133000
     19 H2           1.7200     0.0010     4.6150 h4         1 5V7      -0.014900
     20 H3           1.4400    -0.0100    -2.0320 hn         1 5V7       0.183500
     21 H4           3.8090    -0.0110    -2.0810 h5         1 5V7       0.005800
     22 H5           5.9820     0.9140     4.2660 h4         1 5V7       0.167000
     23 H6           8.6970    -1.8390     0.3390 hn         1 5V7       0.274300
     24 H7           8.8550    -0.2190    -0.2550 hn         1 5V7       0.274300
@<TRIPOS>BOND
     1     1     2 2   
     2     2     3 1   
     3     2     7 1   
     4     3     4 ar  
     5     3    10 ar  
     6     4     5 ar  
     7     4    18 1   
     8     5     6 ar  
     9     5    19 1   
    10     6    11 ar  
    11     7     8 1   
    12     7    20 1   
    13     8     9 2   
    14     8    21 1   
    15     9    10 1   
    16    10    11 ar  
    17    11    12 1   
    18    12    13 1   
    19    12    14 2   
    20    13    16 2   
    21    14    15 1   
    22    14    22 1   
    23    15    16 1   
    24    16    17 1   
    25    17    23 1   
    26    17    24 1   
@<TRIPOS>SUBSTRUCTURE
     1 5V7         1 TEMP              0 ****  ****    0 ROOT
