@<TRIPOS>MOLECULE
molecule
   51    54     1     0     0
SMALL
bcc


@<TRIPOS>ATOM
      1 C13          0.0000     0.0000     0.0000 ca         1 5VC       0.662200
      2 C14          1.3910     0.0000     0.0000 ca         1 5VC      -0.314300
      3 C15          2.0650     0.0000     1.2080 ca         1 5VC      -0.091000
      4 C16          1.3210    -0.0010     2.3810 ca         1 5VC      -0.301300
      5 C11         -0.0580    -0.0010     2.3070 ca         1 5VC       0.479600
      6 C21          1.7760     0.4040    -3.7260 cc         1 5VC       0.408200
      7 C27         -1.0580     4.4720    10.4600 ca         1 5VC      -0.156000
      8 O23          0.2670     2.8010     6.9250 os         1 5VC      -0.316900
      9 C24         -0.1680     3.3510     8.0900 ca         1 5VC       0.138100
     10 C25          0.6820     3.4240     9.1860 ca         1 5VC       0.097900
     11 C26          0.2340     3.9840    10.3690 ca         1 5VC       0.017400
     12 C18         -0.0010     0.1660    -2.4010 cd         1 5VC       0.740300
     13 N22          1.2890     0.2410    -2.5100 nc         1 5VC      -0.775000
     14 S19         -0.7310     0.3080    -3.9400 ss         1 5VC      -0.242300
     15 C20          0.8560     0.4700    -4.6890 cd         1 5VC      -0.248400
     16 N17         -0.6890    -0.0040    -1.2080 nu         1 5VC      -0.816600
     17 C10         -0.8700    -0.0010     3.5760 c3         1 5VC      -0.109700
     18 C1          -1.7980     1.2150     3.5890 c3         1 5VC      -0.157000
     19 C7          -2.8030     1.0910     2.4730 c          1 5VC       0.914600
     20 O8          -3.6410     0.0430     2.4380 o          1 5VC      -0.844300
     21 O9          -2.8540     1.9340     1.6090 o          1 5VC      -0.844300
     22 C2          -0.9730     2.4880     3.3930 c3         1 5VC      -0.052400
     23 C3           0.0480     2.6140     4.5260 c3         1 5VC      -0.099900
     24 C4          -0.6850     2.6830     5.8670 c3         1 5VC       0.136100
     25 F30          1.9430     2.9470     9.0970 f          1 5VC      -0.123900
     26 Cl3          1.2950     4.0770    11.7410 cl         1 5VC      -0.104400
     27 C28         -1.9040     4.4010     9.3690 ca         1 5VC      -0.097000
     28 C29         -1.4620     3.8420     8.1850 ca         1 5VC      -0.200000
     29 C5          -1.5110     1.4100     6.0630 c3         1 5VC      -0.099900
     30 C6          -2.5310     1.2840     4.9300 c3         1 5VC      -0.052400
     31 N12         -0.6730    -0.0000     1.1400 nb         1 5VC      -0.665000
     32 H1           1.9400     0.0010    -0.9340 ha         1 5VC       0.198000
     33 H2           3.1480     0.0000     1.2390 ha         1 5VC       0.120000
     34 H3           1.8180    -0.0010     3.3430 ha         1 5VC       0.126000
     35 H6           1.0500     0.6010    -5.7470 h4         1 5VC       0.169000
     36 H7          -1.6790    -0.1520    -1.2180 hn         1 5VC       0.489800
     37 H8          -0.2050     0.0440     4.4300 hc         1 5VC       0.053700
     38 H9          -1.4610    -0.9070     3.6260 hc         1 5VC       0.053700
     39 H11         -0.4530     2.4380     2.4440 hc         1 5VC       0.055700
     40 H12         -1.6310     3.3490     3.4040 hc         1 5VC       0.055700
     41 H13          0.7030     1.7520     4.5170 hc         1 5VC       0.042200
     42 H14          0.6290     3.5180     4.3870 hc         1 5VC       0.042200
     43 H15         -1.3450     3.5430     5.8720 h1         1 5VC       0.044700
     44 H16         -2.9140     4.7840     9.4430 ha         1 5VC       0.136000
     45 H17         -2.1260     3.7870     7.3310 ha         1 5VC       0.163000
     46 H18         -0.8540     0.5490     6.0520 hc         1 5VC       0.042200
     47 H19         -2.0320     1.4610     7.0110 hc         1 5VC       0.042200
     48 H20         -3.1130     0.3810     5.0690 hc         1 5VC       0.055700
     49 H21         -3.1860     2.1470     4.9380 hc         1 5VC       0.055700
     50 H4           2.8390     0.4780    -3.9260 h4         1 5VC       0.032100
     51 H5          -1.4060     4.9110    11.3870 ha         1 5VC       0.140000
@<TRIPOS>BOND
     1     7    27 ar
     2     7    11 ar
     3    26    11 1
     4    27    28 ar
     5    11    10 ar
     6     6    13 1
     7     6    15 2
     8    28     9 ar
     9    10     9 ar
    10    10    25 1
    11    13    12 2
    12    15    14 1
    13     9     8 1
    14    12    14 1
    15    12    16 1
    16    16     1 1
    17     8    24 1
    18    29    24 1
    19    29    30 1
    20    24    23 1
    21    30    18 1
    22     1    31 ar
    23     1     2 ar
    24    31     5 ar
    25     2     3 ar
    26    21    19 1
    27    23    22 1
    28     5    17 1
    29     5     4 ar
    30    18    22 1
    31    18    17 1
    32    18    19 1
    33     3     4 ar
    34    19    20 1
    35     2    32 1
    36     3    33 1
    37     4    34 1
    38     6    50 1
    39     7    51 1
    40    15    35 1
    41    16    36 1
    42    17    37 1
    43    17    38 1
    44    22    39 1
    45    22    40 1
    46    23    41 1
    47    23    42 1
    48    24    43 1
    49    27    44 1
    50    28    45 1
    51    29    46 1
    52    29    47 1
    53    30    48 1
    54    30    49 1
@<TRIPOS>SUBSTRUCTURE
     1 5VC         1 TEMP              0 ****  ****    0 ROOT
