@<TRIPOS>MOLECULE
5VC
   51    54     1     0     0
SMALL
bcc


@<TRIPOS>ATOM
      1 C13          0.0000     0.0000     0.0000 ca         1 5VC       0.437200
      2 C14          1.3910     0.0000     0.0000 ca         1 5VC      -0.317300
      3 C15          2.0650     0.0000     1.2080 ca         1 5VC      -0.063000
      4 C16          1.3210    -0.0010     2.3810 ca         1 5VC      -0.266300
      5 C11         -0.0580    -0.0010     2.3070 ca         1 5VC       0.418600
      6 C21          1.7760     0.4040    -3.7260 cc         1 5VC       0.409200
      7 C27         -1.0580     4.4720    10.4600 ca         1 5VC      -0.140000
      8 O23          0.2670     2.8010     6.9250 os         1 5VC      -0.289900
      9 C24         -0.1680     3.3510     8.0900 ca         1 5VC       0.157100
     10 C25          0.6820     3.4240     9.1860 ca         1 5VC       0.059900
     11 C26          0.2340     3.9840    10.3690 ca         1 5VC      -0.035600
     12 C18         -0.0010     0.1660    -2.4010 cd         1 5VC       0.566300
     13 N22          1.2890     0.2410    -2.5100 nc         1 5VC      -0.680000
     14 S19         -0.7310     0.3080    -3.9400 ss         1 5VC      -0.341300
     15 C20          0.8560     0.4700    -4.6890 cd         1 5VC      -0.196400
     16 N17         -0.6890    -0.0040    -1.2080 nu         1 5VC      -0.304600
     17 C10         -0.8700    -0.0010     3.5760 c3         1 5VC      -0.074700
     18 C1          -1.7980     1.2150     3.5890 c3         1 5VC      -0.160000
     19 C7          -2.8030     1.0910     2.4730 c          1 5VC       0.997600
     20 O8          -3.6410     0.0430     2.4380 o          1 5VC      -0.892800
     21 O9          -2.8540     1.9340     1.6090 o          1 5VC      -0.892800
     22 C2          -0.9730     2.4880     3.3930 c3         1 5VC      -0.002900
     23 C3           0.0480     2.6140     4.5260 c3         1 5VC      -0.061900
     24 C4          -0.6850     2.6830     5.8670 c3         1 5VC       0.162100
     25 F30          1.9430     2.9470     9.0970 f          1 5VC      -0.117900
     26 Cl3          1.2950     4.0770    11.7410 cl         1 5VC      -0.021400
     27 C28         -1.9040     4.4010     9.3690 ca         1 5VC      -0.058000
     28 C29         -1.4620     3.8420     8.1850 ca         1 5VC      -0.194000
     29 C5          -1.5110     1.4100     6.0630 c3         1 5VC      -0.061900
     30 C6          -2.5310     1.2840     4.9300 c3         1 5VC      -0.002900
     31 N12         -0.6730    -0.0000     1.1400 nb         1 5VC      -0.511000
     32 H1           1.9400     0.0010    -0.9340 ha         1 5VC       0.189000
     33 H2           3.1480     0.0000     1.2390 ha         1 5VC       0.093000
     34 H3           1.8180    -0.0010     3.3430 ha         1 5VC       0.109000
     35 H6           1.0500     0.6010    -5.7470 h4         1 5VC       0.152000
     36 H7          -1.6790    -0.1520    -1.2180 hn         1 5VC       0.311800
     37 H8          -0.2050     0.0440     4.4300 hc         1 5VC       0.030200
     38 H9          -1.4610    -0.9070     3.6260 hc         1 5VC       0.030200
     39 H11         -0.4530     2.4380     2.4440 hc         1 5VC       0.028700
     40 H12         -1.6310     3.3490     3.4040 hc         1 5VC       0.028700
     41 H13          0.7030     1.7520     4.5170 hc         1 5VC       0.018700
     42 H14          0.6290     3.5180     4.3870 hc         1 5VC       0.018700
     43 H15         -1.3450     3.5430     5.8720 h1         1 5VC       0.021700
     44 H16         -2.9140     4.7840     9.4430 ha         1 5VC       0.104000
     45 H17         -2.1260     3.7870     7.3310 ha         1 5VC       0.147000
     46 H18         -0.8540     0.5490     6.0520 hc         1 5VC       0.018700
     47 H19         -2.0320     1.4610     7.0110 hc         1 5VC       0.018700
     48 H20         -3.1130     0.3810     5.0690 hc         1 5VC       0.028700
     49 H21         -3.1860     2.1470     4.9380 hc         1 5VC       0.028700
     50 H4           2.8390     0.4780    -3.9260 h4         1 5VC      -0.012900
     51 H5          -1.4060     4.9110    11.3870 ha         1 5VC       0.113000
@<TRIPOS>BOND
     1     1     2 ar  
     2     1    16 1   
     3     1    31 ar  
     4     2     3 ar  
     5     2    32 1   
     6     3     4 ar  
     7     3    33 1   
     8     4     5 ar  
     9     4    34 1   
    10     5    17 1   
    11     5    31 ar  
    12     6    13 1   
    13     6    15 2   
    14     6    50 1   
    15     7    11 ar  
    16     7    27 ar  
    17     7    51 1   
    18     8     9 1   
    19     8    24 1   
    20     9    10 ar  
    21     9    28 ar  
    22    10    11 ar  
    23    10    25 1   
    24    11    26 1   
    25    12    13 2   
    26    12    14 1   
    27    12    16 1   
    28    14    15 1   
    29    15    35 1   
    30    16    36 1   
    31    17    18 1   
    32    17    37 1   
    33    17    38 1   
    34    18    19 1   
    35    18    22 1   
    36    18    30 1   
    37    19    20 1   
    38    19    21 1   
    39    22    23 1   
    40    22    39 1   
    41    22    40 1   
    42    23    24 1   
    43    23    41 1   
    44    23    42 1   
    45    24    29 1   
    46    24    43 1   
    47    27    28 ar  
    48    27    44 1   
    49    28    45 1   
    50    29    30 1   
    51    29    46 1   
    52    29    47 1   
    53    30    48 1   
    54    30    49 1   
@<TRIPOS>SUBSTRUCTURE
     1 5VC         1 TEMP              0 ****  ****    0 ROOT
