@<TRIPOS>MOLECULE
molecule
   48    51     1     0     0
SMALL
bcc


@<TRIPOS>ATOM
      1 C1           0.0000     0.0000     0.0000 ca         1 5VD       0.146100
      2 C2           1.3940     0.0000     0.0000 ca         1 5VD      -0.170000
      3 O14         -7.0950     0.2230     7.3800 oh         1 5VD      -0.592800
      4 C3           2.0920     0.0000     1.1870 ca         1 5VD      -0.171000
      5 C8          -4.2910     0.0090     2.5270 ca         1 5VD       0.181100
      6 C4           1.4140    -0.0000     2.4060 ca         1 5VD       0.147100
      7 C5          -2.8830    -0.0050     4.9170 ca         1 5VD      -0.075000
      8 C6          -4.2760     0.0010     4.9300 ca         1 5VD      -0.036300
      9 C7          -4.9770     0.0110     3.7460 ca         1 5VD      -0.088300
     10 C10         -7.0730    -0.3980     5.0370 c3         1 5VD      -0.140400
     11 CG          -2.1710     0.0030     1.2200 c          1 5VD       0.586300
     12 CD1         -2.8970     0.0040     2.5030 ca         1 5VD      -0.167600
     13 CE1         -2.1850    -0.0030     3.7180 ca         1 5VD      -0.109600
     14 CZ          -0.7070    -0.0020     3.7080 c          1 5VD       0.588300
     15 CE2          0.0180    -0.0010     2.4260 ca         1 5VD      -0.133600
     16 CD2         -0.6970    -0.0010     1.2110 ca         1 5VD      -0.130600
     17 C9          -6.4820     0.0330     3.6960 c3         1 5VD       0.200400
     18 C11         -6.4120     0.4360     6.1440 c3         1 5VD       0.162800
     19 C12         -4.9570    -0.0070     6.2740 c3         1 5VD      -0.052400
     20 O16         -2.7850     0.0070     0.1720 o          1 5VD      -0.477100
     21 O17         -0.0920    -0.0010     4.7570 o          1 5VD      -0.488100
     22 O18         -0.6790     0.0060    -1.1740 oh         1 5VD      -0.457100
     23 O19          2.1110    -0.0010     3.5700 oh         1 5VD      -0.458100
     24 C13         -6.4690     1.9200     5.7730 c3         1 5VD      -0.131100
     25 C14         -4.2330     0.9330     7.2040 c          1 5VD       0.642100
     26 O20         -3.7160     1.9340     6.7690 o          1 5VD      -0.546000
     27 O21         -4.1630     0.6570     8.5160 os         1 5VD      -0.412900
     28 C22         -3.4500     1.6070     9.3520 c3         1 5VD       0.137700
     29 O1          -6.9320    -0.8600     2.6750 oh         1 5VD      -0.575800
     30 O2          -4.9860     0.0140     1.3630 oh         1 5VD      -0.481100
     31 H1           1.9310     0.0000    -0.9400 ha         1 5VD       0.140000
     32 H2          -8.0210     0.3470     7.2540 ho         1 5VD       0.409000
     33 H3           3.1750     0.0000     1.1740 ha         1 5VD       0.140000
     34 H4          -2.3390    -0.0180     5.8530 ha         1 5VD       0.162000
     35 H5          -6.8700    -1.4490     5.2030 hc         1 5VD       0.063700
     36 H6          -8.1410    -0.2210     5.0380 hc         1 5VD       0.063700
     37 H7          -6.8150     1.0380     3.4680 h1         1 5VD       0.043700
     38 H8          -4.9270    -1.0110     6.6800 hc         1 5VD       0.103700
     39 H9          -0.0780    -0.1380    -1.8860 ho         1 5VD       0.419000
     40 H10          3.0220    -0.1670     3.3910 ho         1 5VD       0.419000
     41 H11         -7.4170     2.1370     5.2970 hc         1 5VD       0.053700
     42 H12         -6.3690     2.5200     6.6690 hc         1 5VD       0.053700
     43 H13         -5.6600     2.1530     5.0900 hc         1 5VD       0.053700
     44 H14         -2.4090     1.6400     9.0540 h1         1 5VD       0.050367
     45 H15         -3.5200     1.3010    10.3880 h1         1 5VD       0.050367
     46 H16         -3.8890     2.5910     9.2350 h1         1 5VD       0.050367
     47 H17         -7.8350    -0.6780     2.4730 ho         1 5VD       0.401000
     48 H18         -5.0750     0.9000     1.0530 ho         1 5VD       0.426000
@<TRIPOS>BOND
     1    23     6 1
     2     4     6 ar
     3     4     2 ar
     4     6    15 ar
     5     2     1 ar
     6    21    14 2
     7    15    14 1
     8    15    16 ar
     9     1    16 ar
    10     1    22 1
    11    14    13 1
    12    16    11 1
    13    13     7 ar
    14    13    12 ar
    15    28    27 1
    16    11    12 1
    17    11    20 2
    18     7     8 ar
    19    12     5 ar
    20    27    25 1
    21    26    25 2
    22    25    19 1
    23     8    19 1
    24     8     9 ar
    25    19    18 1
    26     5     9 ar
    27     5    30 1
    28     9    17 1
    29    18    24 1
    30    18    10 1
    31    18     3 1
    32    17    10 1
    33    17    29 1
    34     2    31 1
    35     3    32 1
    36     4    33 1
    37     7    34 1
    38    10    35 1
    39    10    36 1
    40    17    37 1
    41    19    38 1
    42    22    39 1
    43    23    40 1
    44    24    41 1
    45    24    42 1
    46    24    43 1
    47    28    44 1
    48    28    45 1
    49    28    46 1
    50    29    47 1
    51    30    48 1
@<TRIPOS>SUBSTRUCTURE
     1 5VD         1 TEMP              0 ****  ****    0 ROOT
