@<TRIPOS>MOLECULE
molecule
   56    58     1     0     0
SMALL
bcc


@<TRIPOS>ATOM
      1 C10          0.0000     0.0000     0.0000 ca         1 5VE      -0.074300
      2 C13         -0.5140     0.0140     3.8220 c3         1 5VE       0.184000
      3 C15         -2.2000     1.7700     3.9240 c          1 5VE       0.602100
      4 C17         -2.6410     3.1440     4.3100 c          1 5VE       0.596100
      5 C20         -4.3380     4.8000     4.4780 ca         1 5VE       0.065600
      6 C21         -3.4580     5.8740     4.5270 ca         1 5VE      -0.164000
      7 C22         -3.8980     7.1080     4.9690 ca         1 5VE       0.160900
      8 C24         -5.2180     7.2730     5.3620 ca         1 5VE      -0.024600
      9 C26         -6.0940     6.2040     5.3150 ca         1 5VE      -0.079000
     10 N           -0.9990    -1.3850    -1.7290 n7         1 5VE      -0.819200
     11 C           -1.7340    -1.4240    -3.0010 c3         1 5VE       0.146100
     12 C00         -0.7550    -0.0000    -1.3050 c3         1 5VE       0.201100
     13 Cl25        -5.7690     8.8220     5.9160 cl         1 5VE      -0.071400
     14 N01          2.9640    -3.9870     7.0050 nz         1 5VE      -0.742600
     15 C02          1.9520    -3.6360     6.1440 c2         1 5VE       0.669100
     16 N03          1.7600    -2.3170     5.8080 nu         1 5VE      -0.911200
     17 C04          0.6820    -1.9440     4.8900 c3         1 5VE       0.240800
     18 C05          0.6880    -0.4280     4.6850 c3         1 5VE      -0.106700
     19 C06          1.8920     0.0040     3.8230 c3         1 5VE      -0.034100
     20 C07          1.3810     0.0020     2.3980 ca         1 5VE      -0.105300
     21 C08          2.0710     0.0000     1.1980 ca         1 5VE      -0.115000
     22 C09          1.3820     0.0000     0.0000 ca         1 5VE      -0.083000
     23 C11         -0.6900     0.0060     1.1970 ca         1 5VE      -0.084000
     24 C12         -0.0020     0.0060     2.3980 ca         1 5VE      -0.131300
     25 N14         -0.9460     1.3620     4.2010 ns         1 5VE      -0.552900
     26 O16         -2.9720     1.0210     3.3620 o          1 5VE      -0.598100
     27 O18         -1.8680     3.8930     4.8720 o          1 5VE      -0.584100
     28 N19         -3.8950     3.5520     4.0330 ns         1 5VE      -0.441100
     29 C27         -5.6570     4.9690     4.8800 ca         1 5VE      -0.161000
     30 N28          1.1740    -4.5550     5.6450 n2         1 5VE      -0.811100
     31 F23         -3.0430     8.1530     5.0170 f          1 5VE      -0.118900
     32 H1          -1.3290    -0.6910     3.9290 h1         1 5VE       0.084700
     33 H2          -2.4270     5.7440     4.2200 ha         1 5VE       0.181000
     34 H3          -7.1240     6.3340     5.6250 ha         1 5VE       0.158000
     35 H4          -1.5230    -1.8670    -1.0260 hn         1 5VE       0.351800
     36 H6          -2.6950    -0.9380    -2.8770 h1         1 5VE       0.036700
     37 H7          -1.1640    -0.9080    -3.7640 h1         1 5VE       0.036700
     38 H8          -1.8870    -2.4540    -3.2980 h1         1 5VE       0.036700
     39 H9          -0.1700     0.5110    -2.0600 h1         1 5VE       0.046700
     40 H10         -1.7010     0.5100    -1.1750 h1         1 5VE       0.046700
     41 H11          3.8380    -3.6540     6.6470 hn         1 5VE       0.479133
     42 H12          2.9980    -4.9830     7.0930 hn         1 5VE       0.479133
     43 H13          2.3540    -1.6110     6.1960 hn         1 5VE       0.446800
     44 H14          0.8310    -2.4370     3.9370 h1         1 5VE       0.069700
     45 H15         -0.2700    -2.2480     5.3090 h1         1 5VE       0.069700
     46 H16          0.6900     0.0950     5.6340 hc         1 5VE       0.074700
     47 H17          2.1950     1.0070     4.0980 hc         1 5VE       0.058700
     48 H18          2.6900    -0.7210     3.9230 hc         1 5VE       0.058700
     49 H19          3.1540     0.0000     1.1980 ha         1 5VE       0.134000
     50 H20          1.9240     0.0610    -0.9360 ha         1 5VE       0.151000
     51 H21         -1.7740     0.0080     1.1950 ha         1 5VE       0.152000
     52 H22         -0.3180     1.9700     4.6880 hn         1 5VE       0.341500
     53 H23         -4.5170     2.9500     3.5310 hn         1 5VE       0.351500
     54 H24         -6.3450     4.1330     4.8430 ha         1 5VE       0.144000
     55 H25          0.4360    -4.3010     5.0170 hn         1 5VE       0.480400
     56 H013         2.7950    -3.5780     7.9030 hn         1 5VE       0.479133
@<TRIPOS>BOND
     1     9    29 ar
     2     9     8 ar
     3    29     5 ar
     4    16    17 1
     5    16    15 1
     6    13     8 1
     7    30    15 2
     8     8     7 ar
     9    17    18 1
    10    15    14 1
    11    19    18 1
    12    19    20 1
    13    18     2 1
    14     5    28 1
    15     5     6 ar
    16    28     4 1
    17     4    27 2
    18     4     3 1
    19    26     3 2
    20     7     6 ar
    21     7    31 1
    22     3    25 1
    23    25     2 1
    24     2    24 1
    25    20    21 ar
    26    20    24 ar
    27    21    22 ar
    28    24    23 ar
    29    22     1 ar
    30    23     1 ar
    31     1    12 1
    32    12    10 1
    33    10    11 1
    34     2    32 1
    35     6    33 1
    36     9    34 1
    37    10    35 1
    38    11    36 1
    39    11    37 1
    40    11    38 1
    41    12    39 1
    42    12    40 1
    43    14    41 1
    44    14    42 1
    45    16    43 1
    46    17    44 1
    47    17    45 1
    48    18    46 1
    49    19    47 1
    50    19    48 1
    51    21    49 1
    52    22    50 1
    53    23    51 1
    54    25    52 1
    55    28    53 1
    56    29    54 1
    57    30    55 1
    58    56    14 1
@<TRIPOS>SUBSTRUCTURE
     1 5VE         1 TEMP              0 ****  ****    0 ROOT
