@<TRIPOS>MOLECULE
5VE
   56    58     1     0     0
SMALL
bcc


@<TRIPOS>ATOM
      1 C10          0.0000     0.0000     0.0000 ca         1 5VE      -0.084300
      2 C13         -0.5140     0.0140     3.8220 c3         1 5VE       0.100000
      3 C15         -2.2000     1.7700     3.9240 c          1 5VE       0.509100
      4 C17         -2.6410     3.1440     4.3100 c          1 5VE       0.488100
      5 C20         -4.3380     4.8000     4.4780 ca         1 5VE      -0.092400
      6 C21         -3.4580     5.8740     4.5270 ca         1 5VE      -0.129000
      7 C22         -3.8980     7.1080     4.9690 ca         1 5VE       0.132900
      8 C24         -5.2180     7.2730     5.3620 ca         1 5VE      -0.084600
      9 C26         -6.0940     6.2040     5.3150 ca         1 5VE      -0.056000
     10 N           -0.9990    -1.3850    -1.7290 n7         1 5VE      -0.585200
     11 C           -1.7340    -1.4240    -3.0010 c3         1 5VE       0.179100
     12 C00         -0.7550    -0.0000    -1.3050 c3         1 5VE       0.199100
     13 Cl25        -5.7690     8.8220     5.9160 cl         1 5VE       0.021600
     14 N01          2.9640    -3.9870     7.0050 nz         1 5VE       0.125400
     15 C02          1.9520    -3.6360     6.1440 c2         1 5VE       0.248100
     16 N03          1.7600    -2.3170     5.8080 nu         1 5VE      -0.411200
     17 C04          0.6820    -1.9440     4.8900 c3         1 5VE       0.178800
     18 C05          0.6880    -0.4280     4.6850 c3         1 5VE      -0.087700
     19 C06          1.8920     0.0040     3.8230 c3         1 5VE       0.042900
     20 C07          1.3810     0.0020     2.3980 ca         1 5VE      -0.116300
     21 C08          2.0710     0.0000     1.1980 ca         1 5VE      -0.083000
     22 C09          1.3820     0.0000     0.0000 ca         1 5VE      -0.055000
     23 C11         -0.6900     0.0060     1.1970 ca         1 5VE      -0.049000
     24 C12         -0.0020     0.0060     2.3980 ca         1 5VE      -0.139300
     25 N14         -0.9460     1.3620     4.2010 ns         1 5VE      -0.149900
     26 O16         -2.9720     1.0210     3.3620 o          1 5VE      -0.647100
     27 O18         -1.8680     3.8930     4.8720 o          1 5VE      -0.639100
     28 N19         -3.8950     3.5520     4.0330 ns         1 5VE       0.026900
     29 C27         -5.6570     4.9690     4.8800 ca         1 5VE      -0.126000
     30 N28          1.1740    -4.5550     5.6450 n2         1 5VE      -0.605100
     31 F23         -3.0430     8.1530     5.0170 f          1 5VE      -0.115900
     32 H1          -1.3290    -0.6910     3.9290 h1         1 5VE       0.061700
     33 H2          -2.4270     5.7440     4.2200 ha         1 5VE       0.159000
     34 H3          -7.1240     6.3340     5.6250 ha         1 5VE       0.122000
     35 H4          -1.5230    -1.8670    -1.0260 hn         1 5VE       0.251800
     36 H6          -1.8760    -2.4540    -3.3040 h1         1 5VE       0.002700
     37 H7          -2.7000    -0.9490    -2.8740 h1         1 5VE       0.002700
     38 H8          -1.1700    -0.8970    -3.7610 h1         1 5VE       0.002700
     39 H9          -1.7010     0.5100    -1.1750 h1         1 5VE       0.016200
     40 H10         -0.1700     0.5110    -2.0600 h1         1 5VE       0.016200
     41 H11          3.8260    -4.0490     6.5000 hn         1 5VE       0.227133
     42 H12          2.7570    -4.8730     7.4210 hn         1 5VE       0.227133
     43 H13          2.3550    -1.6110     6.1940 hn         1 5VE       0.299800
     44 H14         -0.2700    -2.2480     5.3090 h1         1 5VE       0.052700
     45 H15          0.8310    -2.4370     3.9370 h1         1 5VE       0.052700
     46 H16          0.6900     0.0950     5.6340 hc         1 5VE       0.041700
     47 H17          2.1950     1.0070     4.0980 hc         1 5VE       0.021700
     48 H18          2.6900    -0.7210     3.9230 hc         1 5VE       0.021700
     49 H19          3.1540     0.0000     1.1980 ha         1 5VE       0.105000
     50 H20          1.9240     0.0610    -0.9360 ha         1 5VE       0.119000
     51 H21         -1.7740     0.0090     1.1950 ha         1 5VE       0.126000
     52 H22         -0.3180     1.9700     4.6880 hn         1 5VE       0.197500
     53 H23         -4.5180     2.9500     3.5320 hn         1 5VE       0.189500
     54 H24         -6.3450     4.1330     4.8430 ha         1 5VE       0.114000
     55 H25          1.3120    -5.5160     5.8890 hn         1 5VE       0.349400
     56 H013         3.0470    -3.2930     7.7220 hn         1 5VE       0.227133
@<TRIPOS>BOND
     1     1    12 1   
     2     1    22 ar  
     3     1    23 ar  
     4     2    18 1   
     5     2    24 1   
     6     2    25 1   
     7     2    32 1   
     8     3     4 1   
     9     3    25 1   
    10     3    26 2   
    11     4    27 2   
    12     4    28 1   
    13     5     6 ar  
    14     5    28 1   
    15     5    29 ar  
    16     6     7 ar  
    17     6    33 1   
    18     7     8 ar  
    19     7    31 1   
    20     8     9 ar  
    21     8    13 1   
    22     9    29 ar  
    23     9    34 1   
    24    10    11 1   
    25    10    12 1   
    26    10    35 1   
    27    11    36 1   
    28    11    37 1   
    29    11    38 1   
    30    12    39 1   
    31    12    40 1   
    32    14    15 1   
    33    14    41 1   
    34    14    42 1   
    35    14    56 1   
    36    15    16 1   
    37    15    30 2   
    38    16    17 1   
    39    16    43 1   
    40    17    18 1   
    41    17    44 1   
    42    17    45 1   
    43    18    19 1   
    44    18    46 1   
    45    19    20 1   
    46    19    47 1   
    47    19    48 1   
    48    20    21 ar  
    49    20    24 ar  
    50    21    22 ar  
    51    21    49 1   
    52    22    50 1   
    53    23    24 ar  
    54    23    51 1   
    55    25    52 1   
    56    28    53 1   
    57    29    54 1   
    58    30    55 1   
@<TRIPOS>SUBSTRUCTURE
     1 5VE         1 TEMP              0 ****  ****    0 ROOT
