@<TRIPOS>MOLECULE
5VF
   62    64     1     0     0
SMALL
bcc


@<TRIPOS>ATOM
      1 CAA          0.0000     0.0000     0.0000 ca         1 5VF      -0.125000
      2 CAB          1.3830     0.0000     0.0000 ca         1 5VF       0.135900
      3 FAC          2.0590     0.0000    -1.1700 f          1 5VF      -0.112900
      4 CAD          2.0770     0.0000     1.2000 ca         1 5VF      -0.081600
      5 ClAE         3.8120     0.0010     1.1980 cl         1 5VF       0.041600
      6 CAF          1.3880     0.0000     2.3990 ca         1 5VF      -0.055000
      7 CAG          0.0070    -0.0000     2.4050 ca         1 5VF      -0.121000
      8 CAH         -0.6920     0.0050     1.2040 ca         1 5VF      -0.108400
      9 NAI         -2.0900     0.0040     1.2070 ns         1 5VF       0.037900
     10 CAJ         -2.7670     0.6790     0.2570 c          1 5VF       0.481100
     11 OAK         -2.1650     1.2180    -0.6500 o          1 5VF      -0.637100
     12 CAL         -4.2560     0.7650     0.3200 c          1 5VF       0.512100
     13 OAM         -4.8570     0.2280     1.2260 o          1 5VF      -0.644100
     14 NAN         -4.9320     1.4400    -0.6310 ns         1 5VF      -0.162900
     15 CAO         -6.3940     1.5250    -0.5690 c3         1 5VF       0.093000
     16 CAP         -6.8160     2.6920     0.2960 ca         1 5VF      -0.115300
     17 CAQ         -6.8620     2.8180     1.6740 ca         1 5VF      -0.038000
     18 CAR         -7.2890     3.9980     2.2500 ca         1 5VF      -0.094000
     19 CAS         -7.6730     5.0580     1.4510 ca         1 5VF      -0.151300
     20 CAT         -8.1400     6.3470     2.0770 c3         1 5VF       0.244100
     21 NAU         -6.9920     7.2340     2.2800 nh         1 5VF      -0.461600
     22 CBE         -6.5980     8.1740     1.2280 c3         1 5VF       0.187100
     23 CBF         -6.2850     7.1850     3.4580 c2         1 5VF       0.273100
     24 NBH         -6.6350     6.3490     4.3940 n2         1 5VF      -0.633100
     25 NBG         -5.2070     8.0180     3.6490 nz         1 5VF       0.187400
     26 CAV         -7.6280     4.9340     0.0750 ca         1 5VF      -0.062000
     27 CAW         -7.2000     3.7520    -0.5060 ca         1 5VF      -0.099300
     28 CAX         -7.0620     3.3690    -1.9630 c3         1 5VF       0.037900
     29 CAY         -6.9720     1.8280    -1.9680 c3         1 5VF      -0.069700
     30 CAZ         -8.3590     1.2030    -2.1310 c3         1 5VF       0.153800
     31 NBA         -8.8850     1.5200    -3.4610 nu         1 5VF      -0.508200
     32 CBB        -10.1260     1.0620    -3.8360 c2         1 5VF       0.247100
     33 NBD        -10.5930     1.3440    -5.0210 n2         1 5VF      -0.585100
     34 NBC        -10.8720     0.3060    -2.9650 nz         1 5VF       0.191400
     35 H1          -0.5420     0.0040    -0.9380 ha         1 5VF       0.156000
     36 H2           1.9320    -0.0020     3.3350 ha         1 5VF       0.126000
     37 H3          -0.5310     0.0020     3.3450 ha         1 5VF       0.113000
     38 H4          -2.5880    -0.5180     1.9000 hn         1 5VF       0.188500
     39 H5          -4.4380     1.8690    -1.3880 hn         1 5VF       0.205500
     40 H6          -6.8130     0.6030    -0.1840 h1         1 5VF       0.061700
     41 H7          -6.5610     1.9880     2.3030 ha         1 5VF       0.140000
     42 H8          -7.3760     4.0740     3.3280 ha         1 5VF       0.113000
     43 H9          -8.8570     6.8270     1.4230 h1         1 5VF       0.047700
     44 H10         -8.6060     6.1360     3.0320 h1         1 5VF       0.047700
     45 H11         -5.6260     7.8960     0.8410 h1         1 5VF       0.026033
     46 H12         -7.3270     8.1470     0.4280 h1         1 5VF       0.026033
     47 H13         -6.5500     9.1760     1.6390 h1         1 5VF       0.026033
     48 H14         -7.4190     5.7410     4.2570 hn         1 5VF       0.388400
     49 H15         -4.5340     7.8640     2.9250 hn         1 5VF       0.227800
     50 H16         -5.5130     8.9710     3.6230 hn         1 5VF       0.227800
     51 H17         -7.9290     5.7650    -0.5510 ha         1 5VF       0.111000
     52 H18         -7.9320     3.6950    -2.5200 hc         1 5VF       0.034700
     53 H19         -6.1590     3.7980    -2.3800 hc         1 5VF       0.034700
     54 H20         -6.2960     1.4870    -2.7430 hc         1 5VF       0.063700
     55 H21         -8.2860     0.1280    -2.0180 h1         1 5VF       0.022200
     56 H22         -9.0250     1.6010    -1.3750 h1         1 5VF       0.022200
     57 H23         -8.3100     2.0020    -4.1230 hn         1 5VF       0.344800
     58 H24        -10.0500     1.8940    -5.6560 hn         1 5VF       0.379400
     59 H25        -11.0680     0.8410    -2.1420 hn         1 5VF       0.227133
     60 H26        -10.3610    -0.5170    -2.7140 hn         1 5VF       0.227133
     61 HBG3        -4.8020     7.8390     4.5460 hn         1 5VF       0.227800
     62 HBC3       -11.7340     0.0470    -3.4020 hn         1 5VF       0.227133
@<TRIPOS>BOND
     1     1     2 ar  
     2     1     8 ar  
     3     1    35 1   
     4     2     3 1   
     5     2     4 ar  
     6     4     5 1   
     7     4     6 ar  
     8     6     7 ar  
     9     6    36 1   
    10     7     8 ar  
    11     7    37 1   
    12     8     9 1   
    13     9    10 1   
    14     9    38 1   
    15    10    11 2   
    16    10    12 1   
    17    12    13 2   
    18    12    14 1   
    19    14    15 1   
    20    14    39 1   
    21    15    16 1   
    22    15    29 1   
    23    15    40 1   
    24    16    17 ar  
    25    16    27 ar  
    26    17    18 ar  
    27    17    41 1   
    28    18    19 ar  
    29    18    42 1   
    30    19    20 1   
    31    19    26 ar  
    32    20    21 1   
    33    20    43 1   
    34    20    44 1   
    35    21    22 1   
    36    21    23 1   
    37    22    45 1   
    38    22    46 1   
    39    22    47 1   
    40    23    24 2   
    41    23    25 1   
    42    24    48 1   
    43    25    49 1   
    44    25    50 1   
    45    25    61 1   
    46    26    27 ar  
    47    26    51 1   
    48    27    28 1   
    49    28    29 1   
    50    28    52 1   
    51    28    53 1   
    52    29    30 1   
    53    29    54 1   
    54    30    31 1   
    55    30    55 1   
    56    30    56 1   
    57    31    32 1   
    58    31    57 1   
    59    32    33 2   
    60    32    34 1   
    61    33    58 1   
    62    34    59 1   
    63    34    60 1   
    64    34    62 1   
@<TRIPOS>SUBSTRUCTURE
     1 5VF         1 TEMP              0 ****  ****    0 ROOT
