@<TRIPOS>MOLECULE
molecule
   62    64     1     0     0
SMALL
bcc


@<TRIPOS>ATOM
      1 CAA          0.0000     0.0000     0.0000 ca         1 5VF      -0.163000
      2 CAB          1.3830     0.0000     0.0000 ca         1 5VF       0.162900
      3 FAC          2.0590     0.0000    -1.1700 f          1 5VF      -0.113900
      4 CAD          2.0770     0.0000     1.2000 ca         1 5VF      -0.020600
      5 ClAE         3.8120     0.0010     1.1980 cl         1 5VF      -0.058400
      6 CAF          1.3880     0.0000     2.3990 ca         1 5VF      -0.079000
      7 CAG          0.0070    -0.0000     2.4050 ca         1 5VF      -0.160000
      8 CAH         -0.6920     0.0050     1.2040 ca         1 5VF       0.054600
      9 NAI         -2.0900     0.0040     1.2070 ns         1 5VF      -0.438100
     10 CAJ         -2.7670     0.6790     0.2570 c          1 5VF       0.593100
     11 OAK         -2.1650     1.2180    -0.6500 o          1 5VF      -0.582100
     12 CAL         -4.2560     0.7650     0.3200 c          1 5VF       0.601100
     13 OAM         -4.8570     0.2280     1.2260 o          1 5VF      -0.597100
     14 NAN         -4.9320     1.4400    -0.6310 ns         1 5VF      -0.557900
     15 CAO         -6.3940     1.5250    -0.5690 c3         1 5VF       0.178000
     16 CAP         -6.8160     2.6920     0.2960 ca         1 5VF      -0.109300
     17 CAQ         -6.8620     2.8180     1.6740 ca         1 5VF      -0.087000
     18 CAR         -7.2890     3.9980     2.2500 ca         1 5VF      -0.104000
     19 CAS         -7.6730     5.0580     1.4510 ca         1 5VF      -0.128300
     20 CAT         -8.1400     6.3470     2.0770 c3         1 5VF       0.298100
     21 NAU         -6.9920     7.2340     2.2800 nh         1 5VF      -0.766600
     22 CBE         -6.5980     8.1740     1.2280 c3         1 5VF       0.195100
     23 CBF         -6.2850     7.1850     3.4580 c2         1 5VF       0.702100
     24 NBH         -6.6350     6.3490     4.3940 n2         1 5VF      -0.796100
     25 NBG         -5.2070     8.0180     3.6490 nz         1 5VF      -0.804600
     26 CAV         -7.6280     4.9340     0.0750 ca         1 5VF      -0.104000
     27 CAW         -7.2000     3.7520    -0.5060 ca         1 5VF      -0.098300
     28 CAX         -7.0620     3.3690    -1.9630 c3         1 5VF      -0.038100
     29 CAY         -6.9720     1.8280    -1.9680 c3         1 5VF      -0.096700
     30 CAZ         -8.3590     1.2030    -2.1310 c3         1 5VF       0.215800
     31 NBA         -8.8850     1.5200    -3.4610 nu         1 5VF      -0.862200
     32 CBB        -10.1260     1.0620    -3.8360 c2         1 5VF       0.693100
     33 NBD        -10.5930     1.3440    -5.0210 n2         1 5VF      -0.765100
     34 NBC        -10.8720     0.3060    -2.9650 nz         1 5VF      -0.805600
     35 H1          -0.5420     0.0040    -0.9380 ha         1 5VF       0.178000
     36 H2           1.9320    -0.0020     3.3350 ha         1 5VF       0.161000
     37 H3          -0.5310     0.0020     3.3450 ha         1 5VF       0.142000
     38 H4          -2.5880    -0.5170     1.9010 hn         1 5VF       0.351500
     39 H5          -4.4380     1.8690    -1.3880 hn         1 5VF       0.346500
     40 H6          -6.8130     0.6030    -0.1840 h1         1 5VF       0.087700
     41 H7          -6.5610     1.9880     2.3030 ha         1 5VF       0.166000
     42 H8          -7.3740     4.0750     3.3280 ha         1 5VF       0.158000
     43 H9          -8.8570     6.8270     1.4230 h1         1 5VF       0.090200
     44 H10         -8.6060     6.1360     3.0320 h1         1 5VF       0.090200
     45 H11         -6.5470     9.1750     1.6390 h1         1 5VF       0.060700
     46 H12         -7.3290     8.1490     0.4290 h1         1 5VF       0.060700
     47 H13         -5.6270     7.8940     0.8390 h1         1 5VF       0.060700
     48 H14         -6.1210     6.3120     5.2520 hn         1 5VF       0.443400
     49 H15         -4.7830     7.8180     4.5330 hn         1 5VF       0.470133
     50 H16         -4.5390     7.8730     2.9180 hn         1 5VF       0.470133
     51 H17         -7.9290     5.7650    -0.5510 ha         1 5VF       0.134000
     52 H18         -7.9320     3.6950    -2.5200 hc         1 5VF       0.070700
     53 H19         -6.1590     3.7980    -2.3800 hc         1 5VF       0.070700
     54 H20         -6.2960     1.4870    -2.7430 hc         1 5VF       0.094700
     55 H21         -8.2860     0.1280    -2.0180 h1         1 5VF       0.048200
     56 H22         -9.0250     1.6010    -1.3750 h1         1 5VF       0.048200
     57 H23         -8.3100     2.0030    -4.1230 hn         1 5VF       0.511800
     58 H24        -11.4960     1.0110    -5.2960 hn         1 5VF       0.448400
     59 H25        -10.3610    -0.5170    -2.7140 hn         1 5VF       0.469800
     60 H26        -11.0680     0.8420    -2.1420 hn         1 5VF       0.469800
     61 HBG3        -5.5160     8.9700     3.6390 hn         1 5VF       0.470133
     62 HBC3       -11.7290     0.0360    -3.4060 hn         1 5VF       0.469800
@<TRIPOS>BOND
     1    33    32 2   
     2     6     7 ar  
     3     6     4 ar  
     4    31    32 1   
     5    31    30 1   
     6    32    34 1   
     7     7     8 ar  
     8     5     4 1   
     9     4     2 ar  
    10    30    29 1   
    11     8     9 1   
    12     8     1 ar  
    13    29    28 1   
    14    29    15 1   
    15     9    10 1   
    16    28    27 1   
    17     2     1 ar  
    18     2     3 1   
    19    13    12 2   
    20    10    12 1   
    21    10    11 2   
    22    12    14 1   
    23    14    15 1   
    24    15    16 1   
    25    27    16 ar  
    26    27    26 ar  
    27    16    17 ar  
    28    26    19 ar  
    29    17    18 ar  
    30    19    18 ar  
    31    19    20 1   
    32    20    21 1   
    33    21    22 1   
    34    21    23 1   
    35    24    23 2   
    36    23    25 1   
    37     1    35 1   
    38     6    36 1   
    39     7    37 1   
    40     9    38 1   
    41    14    39 1   
    42    15    40 1   
    43    17    41 1   
    44    18    42 1   
    45    20    43 1   
    46    20    44 1   
    47    22    45 1   
    48    22    46 1   
    49    22    47 1   
    50    24    48 1   
    51    25    49 1   
    52    25    50 1   
    53    26    51 1   
    54    28    52 1   
    55    28    53 1   
    56    29    54 1   
    57    30    55 1   
    58    30    56 1   
    59    31    57 1   
    60    33    58 1   
    61    34    59 1   
    62    34    60 1   
    63    61    25 1   
    64    62    34 1   
@<TRIPOS>SUBSTRUCTURE
     1 5VF         1 TEMP              0 ****  ****    0 ROOT
