@<TRIPOS>MOLECULE
molecule
   56    58     1     0     0
SMALL
bcc


@<TRIPOS>ATOM
      1 C10          0.0000     0.0000     0.0000 ca         1 5VG      -0.119000
      2 C13         -0.5120     0.0110     3.8230 c3         1 5VG       0.184000
      3 C15         -2.1970     1.7680     3.9270 c          1 5VG       0.601100
      4 C17         -2.6380     3.1410     4.3140 c          1 5VG       0.597100
      5 C20         -4.3340     4.7970     4.4860 ca         1 5VG       0.076600
      6 C21         -3.4550     5.8700     4.5350 ca         1 5VG      -0.160000
      7 C22         -3.8960     7.1050     4.9780 ca         1 5VG       0.159900
      8 C24         -5.2150     7.2690     5.3720 ca         1 5VG      -0.026600
      9 C26         -6.0920     6.2000     5.3240 ca         1 5VG      -0.090000
     10 N            2.3820    -1.3850    -1.7290 n7         1 5VG      -0.824200
     11 C            3.1170    -1.4240    -3.0000 c3         1 5VG       0.146100
     12 C00          2.1370    -0.0000    -1.3050 c3         1 5VG       0.200100
     13 Cl25        -5.7670     8.8180     5.9280 cl         1 5VG      -0.073400
     14 N01          3.1340    -4.0240     6.7710 nz         1 5VG      -0.742600
     15 C02          2.0470    -3.6590     6.0120 c2         1 5VG       0.670100
     16 N03          1.8410    -2.3370     5.6970 nu         1 5VG      -0.910200
     17 C04          0.6840    -1.9480     4.8880 c3         1 5VG       0.239800
     18 C05          0.6900    -0.4310     4.6850 c3         1 5VG      -0.106700
     19 C06          1.8950     0.0020     3.8230 c3         1 5VG      -0.034100
     20 C07          1.3820     0.0010     2.3980 ca         1 5VG      -0.105300
     21 C08          2.0720     0.0000     1.1970 ca         1 5VG      -0.093000
     22 C09          1.3820     0.0000     0.0000 ca         1 5VG      -0.061300
     23 C11         -0.6890     0.0050     1.1970 ca         1 5VG      -0.084000
     24 C12         -0.0000     0.0060     2.3980 ca         1 5VG      -0.131300
     25 N14         -0.9430     1.3590     4.2030 ns         1 5VG      -0.553900
     26 O16         -2.9690     1.0190     3.3650 o          1 5VG      -0.597100
     27 O18         -1.8660     3.8890     4.8770 o          1 5VG      -0.584100
     28 N19         -3.8920     3.5490     4.0380 ns         1 5VG      -0.443100
     29 C27         -5.6550     4.9640     4.8870 ca         1 5VG      -0.163000
     30 N28          1.2130    -4.5660     5.5910 n2         1 5VG      -0.811100
     31 F23         -3.0410     8.1500     5.0270 f          1 5VG      -0.118900
     32 H1          -0.5420     0.0480    -0.9370 ha         1 5VG       0.145000
     33 H2          -1.3270    -0.6940     3.9290 h1         1 5VG       0.085700
     34 H3          -2.4420     5.7570     4.1700 ha         1 5VG       0.179000
     35 H4          -7.1120     6.3680     5.6470 ha         1 5VG       0.158000
     36 H5           1.5120    -1.8690    -1.8310 hn         1 5VG       0.355800
     37 H7           4.0670    -0.9160    -2.8840 h1         1 5VG       0.036700
     38 H8           2.5350    -0.9300    -3.7690 h1         1 5VG       0.036700
     39 H9           3.2910    -2.4540    -3.2850 h1         1 5VG       0.036700
     40 H10          1.5520     0.5100    -2.0600 h1         1 5VG       0.046700
     41 H11          3.0830     0.5110    -1.1750 h1         1 5VG       0.046700
     42 H12          3.1590    -5.0200     6.8600 hn         1 5VG       0.479133
     43 H13          3.0610    -3.6100     7.6790 hn         1 5VG       0.479133
     44 H14          2.4370    -1.6330     6.0860 hn         1 5VG       0.445800
     45 H15          0.7350    -2.4420     3.9250 h1         1 5VG       0.069200
     46 H16         -0.2260    -2.2410     5.3960 h1         1 5VG       0.069200
     47 H17          0.6920     0.0910     5.6340 hc         1 5VG       0.074700
     48 H18          2.1980     1.0040     4.0990 hc         1 5VG       0.058200
     49 H19          2.6920    -0.7250     3.9220 hc         1 5VG       0.058200
     50 H20          3.1550     0.0000     1.1960 ha         1 5VG       0.139000
     51 H21         -1.7720     0.0050     1.1960 ha         1 5VG       0.154000
     52 H22         -0.3130     1.9680     4.6860 hn         1 5VG       0.340500
     53 H23         -4.4980     2.9710     3.4910 hn         1 5VG       0.352500
     54 H24         -6.4650     4.2460     4.9110 ha         1 5VG       0.150000
     55 H25          0.4210    -4.3020     5.0380 hn         1 5VG       0.480400
     56 H013         3.9730    -3.7070     6.3260 hn         1 5VG       0.479133
@<TRIPOS>BOND
     1    30    15 2   
     2     9    29 ar  
     3     9     8 ar  
     4    29     5 ar  
     5    16    15 1   
     6    16    17 1   
     7    13     8 1   
     8    15    14 1   
     9     8     7 ar  
    10     5    28 1   
    11     5     6 ar  
    12    17    18 1   
    13    28     4 1   
    14    18    19 1   
    15    18     2 1   
    16    26     3 2   
    17     7     6 ar  
    18     7    31 1   
    19     4     3 1   
    20     4    27 2   
    21    19    20 1   
    22     3    25 1   
    23    25     2 1   
    24     2    24 1   
    25    20    24 ar  
    26    20    21 ar  
    27    24    23 ar  
    28    21    22 ar  
    29    23     1 ar  
    30    22     1 ar  
    31    22    12 1   
    32    12    10 1   
    33    10    11 1   
    34     1    32 1   
    35     2    33 1   
    36     6    34 1   
    37     9    35 1   
    38    10    36 1   
    39    11    37 1   
    40    11    38 1   
    41    11    39 1   
    42    12    40 1   
    43    12    41 1   
    44    14    42 1   
    45    14    43 1   
    46    16    44 1   
    47    17    45 1   
    48    17    46 1   
    49    18    47 1   
    50    19    48 1   
    51    19    49 1   
    52    21    50 1   
    53    23    51 1   
    54    25    52 1   
    55    28    53 1   
    56    29    54 1   
    57    30    55 1   
    58    56    14 1   
@<TRIPOS>SUBSTRUCTURE
     1 5VG         1 TEMP              0 ****  ****    0 ROOT
