@<TRIPOS>MOLECULE
5VG
   56    58     1     0     0
SMALL
bcc


@<TRIPOS>ATOM
      1 C10          0.0000     0.0000     0.0000 ca         1 5VG      -0.090000
      2 C13         -0.5120     0.0110     3.8230 c3         1 5VG       0.100000
      3 C15         -2.1970     1.7680     3.9270 c          1 5VG       0.509100
      4 C17         -2.6380     3.1410     4.3140 c          1 5VG       0.488100
      5 C20         -4.3340     4.7970     4.4860 ca         1 5VG      -0.079400
      6 C21         -3.4550     5.8700     4.5350 ca         1 5VG      -0.125000
      7 C22         -3.8960     7.1050     4.9780 ca         1 5VG       0.131900
      8 C24         -5.2150     7.2690     5.3720 ca         1 5VG      -0.083600
      9 C26         -6.0920     6.2000     5.3240 ca         1 5VG      -0.067000
     10 N            2.3820    -1.3850    -1.7290 n7         1 5VG      -0.590200
     11 C            3.1170    -1.4240    -3.0000 c3         1 5VG       0.179100
     12 C00          2.1370    -0.0000    -1.3050 c3         1 5VG       0.198100
     13 Cl25        -5.7670     8.8180     5.9280 cl         1 5VG       0.020600
     14 N01          3.1340    -4.0240     6.7710 nz         1 5VG       0.123400
     15 C02          2.0470    -3.6590     6.0120 c2         1 5VG       0.249100
     16 N03          1.8410    -2.3370     5.6970 nu         1 5VG      -0.412200
     17 C04          0.6840    -1.9480     4.8880 c3         1 5VG       0.179800
     18 C05          0.6900    -0.4310     4.6850 c3         1 5VG      -0.087700
     19 C06          1.8950     0.0020     3.8230 c3         1 5VG       0.041900
     20 C07          1.3820     0.0010     2.3980 ca         1 5VG      -0.116300
     21 C08          2.0720     0.0000     1.1970 ca         1 5VG      -0.061000
     22 C09          1.3820     0.0000     0.0000 ca         1 5VG      -0.071300
     23 C11         -0.6890     0.0050     1.1970 ca         1 5VG      -0.050000
     24 C12         -0.0000     0.0060     2.3980 ca         1 5VG      -0.140300
     25 N14         -0.9430     1.3590     4.2030 ns         1 5VG      -0.150900
     26 O16         -2.9690     1.0190     3.3650 o          1 5VG      -0.645100
     27 O18         -1.8660     3.8890     4.8770 o          1 5VG      -0.638100
     28 N19         -3.8920     3.5490     4.0380 ns         1 5VG       0.023900
     29 C27         -5.6550     4.9640     4.8870 ca         1 5VG      -0.131000
     30 N28          1.2130    -4.5660     5.5910 n2         1 5VG      -0.604100
     31 F23         -3.0410     8.1500     5.0270 f          1 5VG      -0.116900
     32 H1          -0.5420     0.0440    -0.9370 ha         1 5VG       0.116000
     33 H2          -1.3270    -0.6940     3.9290 h1         1 5VG       0.062700
     34 H3          -2.4400     5.7560     4.1740 ha         1 5VG       0.156000
     35 H4          -7.1210     6.3280     5.6380 ha         1 5VG       0.123000
     36 H5           1.5120    -1.8690    -1.8310 hn         1 5VG       0.254800
     37 H7           2.5260    -0.9470    -3.7730 h1         1 5VG       0.002033
     38 H8           3.3080    -2.4540    -3.2750 h1         1 5VG       0.002033
     39 H9           4.0580    -0.8990    -2.8890 h1         1 5VG       0.002033
     40 H10          3.0830     0.5110    -1.1750 h1         1 5VG       0.015700
     41 H11          1.5520     0.5100    -2.0600 h1         1 5VG       0.015700
     42 H12          3.9650    -3.9560     6.2180 hn         1 5VG       0.227133
     43 H13          3.0190    -4.9670     7.0860 hn         1 5VG       0.227133
     44 H14          2.4370    -1.6330     6.0860 hn         1 5VG       0.299800
     45 H15         -0.2260    -2.2410     5.3960 h1         1 5VG       0.052700
     46 H16          0.7350    -2.4420     3.9250 h1         1 5VG       0.052700
     47 H17          0.6920     0.0910     5.6340 hc         1 5VG       0.042700
     48 H18          2.6920    -0.7250     3.9220 hc         1 5VG       0.022200
     49 H19          2.1980     1.0040     4.0990 hc         1 5VG       0.022200
     50 H20          3.1550     0.0000     1.1960 ha         1 5VG       0.110000
     51 H21         -1.7720     0.0050     1.1960 ha         1 5VG       0.126000
     52 H22         -0.3100     1.9720     4.6770 hn         1 5VG       0.197500
     53 H23         -4.4980     2.9700     3.4920 hn         1 5VG       0.190500
     54 H24         -6.4510     4.2300     4.9020 ha         1 5VG       0.120000
     55 H25          1.3620    -5.5290     5.8190 hn         1 5VG       0.349400
     56 H013         3.2090    -3.4140     7.5610 hn         1 5VG       0.227133
@<TRIPOS>BOND
     1     1    22 ar  
     2     1    23 ar  
     3     1    32 1   
     4     2    18 1   
     5     2    24 1   
     6     2    25 1   
     7     2    33 1   
     8     3     4 1   
     9     3    25 1   
    10     3    26 2   
    11     4    27 2   
    12     4    28 1   
    13     5     6 ar  
    14     5    28 1   
    15     5    29 ar  
    16     6     7 ar  
    17     6    34 1   
    18     7     8 ar  
    19     7    31 1   
    20     8     9 ar  
    21     8    13 1   
    22     9    29 ar  
    23     9    35 1   
    24    10    11 1   
    25    10    12 1   
    26    10    36 1   
    27    11    37 1   
    28    11    38 1   
    29    11    39 1   
    30    12    22 1   
    31    12    40 1   
    32    12    41 1   
    33    14    15 1   
    34    14    42 1   
    35    14    43 1   
    36    14    56 1   
    37    15    16 1   
    38    15    30 2   
    39    16    17 1   
    40    16    44 1   
    41    17    18 1   
    42    17    45 1   
    43    17    46 1   
    44    18    19 1   
    45    18    47 1   
    46    19    20 1   
    47    19    48 1   
    48    19    49 1   
    49    20    21 ar  
    50    20    24 ar  
    51    21    22 ar  
    52    21    50 1   
    53    23    24 ar  
    54    23    51 1   
    55    25    52 1   
    56    28    53 1   
    57    29    54 1   
    58    30    55 1   
@<TRIPOS>SUBSTRUCTURE
     1 5VG         1 TEMP              0 ****  ****    0 ROOT
