@<TRIPOS>MOLECULE
5VH
   62    64     1     0     0
SMALL
bcc


@<TRIPOS>ATOM
      1 CAA          0.0000     0.0000     0.0000 ca         1 5VH      -0.124000
      2 CAB          1.3830     0.0000     0.0000 ca         1 5VH       0.137900
      3 FAC          2.0580     0.0000    -1.1710 f          1 5VH      -0.111900
      4 CAD          2.0770     0.0000     1.2000 ca         1 5VH      -0.080600
      5 ClAE         3.8130    -0.0000     1.1970 cl         1 5VH       0.043600
      6 CAF          1.3880     0.0000     2.4000 ca         1 5VH      -0.053000
      7 CAG          0.0060     0.0010     2.4050 ca         1 5VH      -0.124000
      8 CAH         -0.6930     0.0060     1.2040 ca         1 5VH      -0.109400
      9 NAI         -2.0900     0.0060     1.2080 ns         1 5VH       0.035900
     10 CAJ         -2.7660     0.6820     0.2580 c          1 5VH       0.480100
     11 OAK         -2.1650     1.2190    -0.6490 o          1 5VH      -0.631100
     12 CAL         -4.2560     0.7680     0.3210 c          1 5VH       0.512100
     13 OAM         -4.8580     0.2310     1.2280 o          1 5VH      -0.651100
     14 NAN         -4.9330     1.4430    -0.6300 ns         1 5VH      -0.159900
     15 CAO         -6.3940     1.5290    -0.5680 c3         1 5VH       0.094000
     16 CAP         -6.8160     2.6960     0.2980 ca         1 5VH      -0.113300
     17 CAQ         -6.8610     2.8220     1.6760 ca         1 5VH      -0.019000
     18 CAR         -7.2880     4.0030     2.2520 ca         1 5VH      -0.160300
     19 CAS         -7.3350     4.1350     3.7530 c3         1 5VH       0.227100
     20 NAT         -6.0510     4.6480     4.2380 nh         1 5VH      -0.460600
     21 CAU         -4.9800     3.7160     4.6000 c3         1 5VH       0.209100
     22 CBF         -5.8530     6.0030     4.3550 c2         1 5VH       0.263100
     23 NBH         -4.7110     6.4590     4.7870 n2         1 5VH      -0.612100
     24 NBG         -6.8580     6.8770     4.0170 nz         1 5VH       0.160400
     25 CAV         -7.6710     5.0620     1.4530 ca         1 5VH      -0.101000
     26 CAW         -7.6260     4.9390     0.0770 ca         1 5VH      -0.059000
     27 CAX         -7.1990     3.7570    -0.5030 ca         1 5VH      -0.080300
     28 CAY         -7.0610     3.3740    -1.9610 c3         1 5VH       0.034900
     29 CAZ         -6.9720     1.8320    -1.9670 c3         1 5VH      -0.075700
     30 CBA         -8.3590     1.2080    -2.1280 c3         1 5VH       0.177800
     31 NBB         -8.8850     1.5250    -3.4580 nu         1 5VH      -0.500200
     32 CBC        -10.1270     1.0680    -3.8340 c2         1 5VH       0.244100
     33 NBE        -10.6200     1.3660    -5.0820 nz         1 5VH       0.197400
     34 NBD        -10.8350     0.3530    -3.0070 n2         1 5VH      -0.600100
     35 H1          -0.5420     0.0040    -0.9380 ha         1 5VH       0.156000
     36 H2           1.9320    -0.0020     3.3360 ha         1 5VH       0.126000
     37 H3          -0.5320     0.0040     3.3450 ha         1 5VH       0.110000
     38 H4          -2.5880    -0.4910     1.9200 hn         1 5VH       0.186500
     39 H5          -4.4370     1.8790    -1.3820 hn         1 5VH       0.205500
     40 H6          -6.8140     0.6080    -0.1820 h1         1 5VH       0.067700
     41 H7          -6.5950     1.9800     2.3030 ha         1 5VH       0.136000
     42 H8          -8.1260     4.8210     4.0300 h1         1 5VH       0.038200
     43 H9          -7.5270     3.1650     4.1950 h1         1 5VH       0.038200
     44 H10         -4.1430     3.8500     3.9260 h1         1 5VH       0.032367
     45 H11         -5.3450     2.6990     4.5260 h1         1 5VH       0.032367
     46 H12         -4.6590     3.9120     5.6160 h1         1 5VH       0.032367
     47 H13         -3.9770     5.8250     5.0350 hn         1 5VH       0.386400
     48 H14         -6.9140     6.9530     3.0210 hn         1 5VH       0.231467
     49 H15         -7.7290     6.5400     4.3760 hn         1 5VH       0.231467
     50 H16         -8.0060     5.9890     1.9030 ha         1 5VH       0.074000
     51 H17         -7.9260     5.7710    -0.5500 ha         1 5VH       0.118000
     52 H18         -6.1570     3.8030    -2.3760 hc         1 5VH       0.033700
     53 H19         -7.9300     3.7010    -2.5180 hc         1 5VH       0.033700
     54 H20         -6.2960     1.4910    -2.7420 hc         1 5VH       0.060700
     55 H21         -9.0250     1.6060    -1.3720 h1         1 5VH       0.038200
     56 H22         -8.2870     0.1330    -2.0150 h1         1 5VH       0.038200
     57 H23         -8.3160     2.0220    -4.1150 hn         1 5VH       0.310800
     58 H24        -10.6980     2.3590    -5.1820 hn         1 5VH       0.226133
     59 H25         -9.9990     1.0080    -5.7810 hn         1 5VH       0.226133
     60 H26        -10.4770     0.1350    -2.0970 hn         1 5VH       0.382400
     61 HBG3        -6.6590     7.7790     4.4040 hn         1 5VH       0.231467
     62 HBE3       -11.5230     0.9480    -5.1930 hn         1 5VH       0.226133
@<TRIPOS>BOND
     1     1     2 ar  
     2     1     8 ar  
     3     1    35 1   
     4     2     3 1   
     5     2     4 ar  
     6     4     5 1   
     7     4     6 ar  
     8     6     7 ar  
     9     6    36 1   
    10     7     8 ar  
    11     7    37 1   
    12     8     9 1   
    13     9    10 1   
    14     9    38 1   
    15    10    11 2   
    16    10    12 1   
    17    12    13 2   
    18    12    14 1   
    19    14    15 1   
    20    14    39 1   
    21    15    16 1   
    22    15    29 1   
    23    15    40 1   
    24    16    17 ar  
    25    16    27 ar  
    26    17    18 ar  
    27    17    41 1   
    28    18    19 1   
    29    18    25 ar  
    30    19    20 1   
    31    19    42 1   
    32    19    43 1   
    33    20    21 1   
    34    20    22 1   
    35    21    44 1   
    36    21    45 1   
    37    21    46 1   
    38    22    23 2   
    39    22    24 1   
    40    23    47 1   
    41    24    48 1   
    42    24    49 1   
    43    24    61 1   
    44    25    26 ar  
    45    25    50 1   
    46    26    27 ar  
    47    26    51 1   
    48    27    28 1   
    49    28    29 1   
    50    28    52 1   
    51    28    53 1   
    52    29    30 1   
    53    29    54 1   
    54    30    31 1   
    55    30    55 1   
    56    30    56 1   
    57    31    32 1   
    58    31    57 1   
    59    32    33 1   
    60    32    34 2   
    61    33    58 1   
    62    33    59 1   
    63    33    62 1   
    64    34    60 1   
@<TRIPOS>SUBSTRUCTURE
     1 5VH         1 TEMP              0 ****  ****    0 ROOT
