@<TRIPOS>MOLECULE
molecule
   62    64     1     0     0
SMALL
bcc


@<TRIPOS>ATOM
      1 CAA          0.0000     0.0000     0.0000 ca         1 5VH      -0.162000
      2 CAB          1.3830     0.0000     0.0000 ca         1 5VH       0.163900
      3 FAC          2.0580     0.0000    -1.1710 f          1 5VH      -0.113900
      4 CAD          2.0770     0.0000     1.2000 ca         1 5VH      -0.018600
      5 ClAE         3.8130    -0.0000     1.1970 cl         1 5VH      -0.057400
      6 CAF          1.3880     0.0000     2.4000 ca         1 5VH      -0.077000
      7 CAG          0.0060     0.0010     2.4050 ca         1 5VH      -0.160000
      8 CAH         -0.6930     0.0060     1.2040 ca         1 5VH       0.054600
      9 NAI         -2.0900     0.0060     1.2080 ns         1 5VH      -0.438100
     10 CAJ         -2.7660     0.6820     0.2580 c          1 5VH       0.594100
     11 OAK         -2.1650     1.2190    -0.6490 o          1 5VH      -0.578100
     12 CAL         -4.2560     0.7680     0.3210 c          1 5VH       0.600100
     13 OAM         -4.8580     0.2310     1.2280 o          1 5VH      -0.601100
     14 NAN         -4.9330     1.4430    -0.6300 ns         1 5VH      -0.558900
     15 CAO         -6.3940     1.5290    -0.5680 c3         1 5VH       0.180000
     16 CAP         -6.8160     2.6960     0.2980 ca         1 5VH      -0.099300
     17 CAQ         -6.8610     2.8220     1.6760 ca         1 5VH      -0.054000
     18 CAR         -7.2880     4.0030     2.2520 ca         1 5VH      -0.140300
     19 CAS         -7.3350     4.1350     3.7530 c3         1 5VH       0.267100
     20 NAT         -6.0510     4.6480     4.2380 nh         1 5VH      -0.766600
     21 CAU         -4.9800     3.7160     4.6000 c3         1 5VH       0.239100
     22 CBF         -5.8530     6.0030     4.3550 c2         1 5VH       0.692100
     23 NBH         -4.7110     6.4590     4.7870 n2         1 5VH      -0.777100
     24 NBG         -6.8580     6.8770     4.0170 nz         1 5VH      -0.810600
     25 CAV         -7.6710     5.0620     1.4530 ca         1 5VH      -0.133000
     26 CAW         -7.6260     4.9390     0.0770 ca         1 5VH      -0.098000
     27 CAX         -7.1990     3.7570    -0.5030 ca         1 5VH      -0.071300
     28 CAY         -7.0610     3.3740    -1.9610 c3         1 5VH      -0.042100
     29 CAZ         -6.9720     1.8320    -1.9670 c3         1 5VH      -0.110700
     30 CBA         -8.3590     1.2080    -2.1280 c3         1 5VH       0.258800
     31 NBB         -8.8850     1.5250    -3.4580 nu         1 5VH      -0.862200
     32 CBC        -10.1270     1.0680    -3.8340 c2         1 5VH       0.690100
     33 NBE        -10.6200     1.3660    -5.0820 nz         1 5VH      -0.806600
     34 NBD        -10.8350     0.3530    -3.0070 n2         1 5VH      -0.776100
     35 H1          -0.5420     0.0040    -0.9380 ha         1 5VH       0.177000
     36 H2           1.9320    -0.0020     3.3360 ha         1 5VH       0.162000
     37 H3          -0.5320     0.0040     3.3450 ha         1 5VH       0.140000
     38 H4          -2.5880    -0.4890     1.9210 hn         1 5VH       0.350500
     39 H5          -4.4370     1.8780    -1.3830 hn         1 5VH       0.346500
     40 H6          -6.8140     0.6080    -0.1820 h1         1 5VH       0.100700
     41 H7          -6.5620     1.9910     2.3030 ha         1 5VH       0.166000
     42 H8          -7.5270     3.1650     4.1950 h1         1 5VH       0.069200
     43 H9          -8.1260     4.8210     4.0300 h1         1 5VH       0.069200
     44 H10         -4.1700     3.8030     3.8860 h1         1 5VH       0.071033
     45 H11         -5.3630     2.7030     4.5900 h1         1 5VH       0.071033
     46 H12         -4.6140     3.9540     5.5910 h1         1 5VH       0.071033
     47 H13         -4.5650     7.4460     4.8730 hn         1 5VH       0.441400
     48 H14         -7.7300     6.5380     4.3720 hn         1 5VH       0.466800
     49 H15         -6.9110     6.9560     3.0210 hn         1 5VH       0.466800
     50 H16         -8.0060     5.9890     1.9030 ha         1 5VH       0.091000
     51 H17         -7.9260     5.7710    -0.5500 ha         1 5VH       0.146000
     52 H18         -6.1570     3.8030    -2.3760 hc         1 5VH       0.066200
     53 H19         -7.9300     3.7010    -2.5180 hc         1 5VH       0.066200
     54 H20         -6.2960     1.4910    -2.7420 hc         1 5VH       0.086700
     55 H21         -8.2870     0.1330    -2.0150 h1         1 5VH       0.082200
     56 H22         -9.0250     1.6060    -1.3720 h1         1 5VH       0.082200
     57 H23         -8.3230     2.0350    -4.1100 hn         1 5VH       0.455800
     58 H24        -10.7330     0.5210    -5.6070 hn         1 5VH       0.471133
     59 H25         -9.9810     1.9710    -5.5580 hn         1 5VH       0.471133
     60 H26        -11.7390     0.0190    -3.2790 hn         1 5VH       0.448400
     61 HBG3        -6.6630     7.7770     4.4090 hn         1 5VH       0.466800
     62 HBE3       -11.5060     1.8230    -4.9910 hn         1 5VH       0.471133
@<TRIPOS>BOND
     1     6     7 ar
     2     6     4 ar
     3    34    32 2
     4     7     8 ar
     5    31    32 1
     6    31    30 1
     7    32    33 1
     8     5     4 1
     9     4     2 ar
    10    30    29 1
    11     8     9 1
    12     8     1 ar
    13    29    28 1
    14    29    15 1
    15     9    10 1
    16    28    27 1
    17    13    12 2
    18    10    12 1
    19    10    11 2
    20    12    14 1
    21     2     1 ar
    22     2     3 1
    23    14    15 1
    24    15    16 1
    25    27    26 ar
    26    27    16 ar
    27    26    25 ar
    28    16    17 ar
    29    17    18 ar
    30    25    18 ar
    31    18    19 1
    32    21    20 1
    33    19    20 1
    34    20    22 1
    35    22    23 2
    36    22    24 1
    37     1    35 1
    38     6    36 1
    39     7    37 1
    40     9    38 1
    41    14    39 1
    42    15    40 1
    43    17    41 1
    44    19    42 1
    45    19    43 1
    46    21    44 1
    47    21    45 1
    48    21    46 1
    49    23    47 1
    50    24    48 1
    51    24    49 1
    52    25    50 1
    53    26    51 1
    54    28    52 1
    55    28    53 1
    56    29    54 1
    57    30    55 1
    58    30    56 1
    59    31    57 1
    60    33    58 1
    61    33    59 1
    62    34    60 1
    63    61    24 1
    64    62    33 1
@<TRIPOS>SUBSTRUCTURE
     1 5VH         1 TEMP              0 ****  ****    0 ROOT
