@<TRIPOS>MOLECULE
molecule
   25    27     1     0     0
SMALL
bcc


@<TRIPOS>ATOM
      1 OAA          0.0000     0.0000     0.0000 o          1 5VJ      -0.622300
      2 SAP          1.4210     0.0000     0.0000 sy         1 5VJ       1.412200
      3 OAB          2.2060     0.9780    -0.6670 o          1 5VJ      -0.622300
      4 CAO          1.9320     0.0000     1.6910 ca         1 5VJ      -0.283500
      5 CAJ          2.1870     1.1820     2.3490 ca         1 5VJ      -0.017000
      6 CAF          2.5790     1.1590     3.6770 ca         1 5VJ      -0.147000
      7 CAE          2.7120    -0.0500     4.3390 ca         1 5VJ      -0.075000
      8 CAI          2.4610    -1.2370     3.6830 ca         1 5VJ      -0.140000
      9 CAN          2.0690    -1.2230     2.3430 ca         1 5VJ       0.064000
     10 CAM          1.8280    -2.5040     1.6370 ca         1 5VJ      -0.106000
     11 CAH          1.7100    -3.6670     2.4070 ca         1 5VJ      -0.075000
     12 CAD          1.4720    -4.8820     1.8030 ca         1 5VJ      -0.156000
     13 CAC          1.3550    -4.9650     0.4270 ca         1 5VJ      -0.084000
     14 CAG          1.4910    -3.8320    -0.3470 ca         1 5VJ      -0.166000
     15 CAL          1.7390    -2.6000     0.2480 ca         1 5VJ       0.191600
     16 NAK          1.9020    -1.4840    -0.5810 nu         1 5VJ      -0.747500
     17 H1           2.0820     2.1270     1.8290 ha         1 5VJ       0.147000
     18 H2           2.7780     2.0870     4.1990 ha         1 5VJ       0.139000
     19 H3           3.0190    -0.0630     5.3780 ha         1 5VJ       0.135000
     20 H4           2.5670    -2.1790     4.2080 ha         1 5VJ       0.138000
     21 H5           1.8010    -3.6100     3.4850 ha         1 5VJ       0.140000
     22 H6           1.3640    -5.7740     2.4090 ha         1 5VJ       0.136000
     23 H7           1.1670    -5.9230    -0.0430 ha         1 5VJ       0.136000
     24 H8           1.3990    -3.9010    -1.4240 ha         1 5VJ       0.138000
     25 H9           2.0680    -1.6080    -1.5610 hn         1 5VJ       0.465800
@<TRIPOS>BOND
     1     1     2 2
     2    13    14 ar
     3    13    12 ar
     4    14    15 ar
     5    12    11 ar
     6    15    16 1
     7    15    10 ar
     8    16     2 1
     9    11    10 ar
    10    10     9 1
    11     2     4 1
    12     2     3 2
    13     9     4 ar
    14     9     8 ar
    15     4     5 ar
    16     8     7 ar
    17     5     6 ar
    18     7     6 ar
    19     5    17 1
    20     6    18 1
    21     7    19 1
    22     8    20 1
    23    11    21 1
    24    12    22 1
    25    13    23 1
    26    14    24 1
    27    16    25 1
@<TRIPOS>SUBSTRUCTURE
     1 5VJ         1 TEMP              0 ****  ****    0 ROOT
