@<TRIPOS>MOLECULE
5VJ
   25    27     1     0     0
SMALL
bcc


@<TRIPOS>ATOM
      1 OAA          0.0000     0.0000     0.0000 o          1 5VJ      -0.578800
      2 SAP          1.4210     0.0000     0.0000 sy         1 5VJ       1.033200
      3 OAB          2.2060     0.9780    -0.6670 o          1 5VJ      -0.578800
      4 CAO          1.9320     0.0000     1.6910 ca         1 5VJ      -0.133500
      5 CAJ          2.1870     1.1820     2.3490 ca         1 5VJ       0.023000
      6 CAF          2.5790     1.1590     3.6770 ca         1 5VJ      -0.132000
      7 CAE          2.7120    -0.0500     4.3390 ca         1 5VJ      -0.044000
      8 CAI          2.4610    -1.2370     3.6830 ca         1 5VJ      -0.131000
      9 CAN          2.0690    -1.2230     2.3430 ca         1 5VJ       0.077000
     10 CAM          1.8280    -2.5040     1.6370 ca         1 5VJ      -0.109000
     11 CAH          1.7100    -3.6670     2.4070 ca         1 5VJ      -0.054000
     12 CAD          1.4720    -4.8820     1.8030 ca         1 5VJ      -0.135000
     13 CAC          1.3550    -4.9650     0.4270 ca         1 5VJ      -0.051000
     14 CAG          1.4910    -3.8320    -0.3470 ca         1 5VJ      -0.153000
     15 CAL          1.7390    -2.6000     0.2480 ca         1 5VJ       0.113600
     16 NAK          1.9020    -1.4840    -0.5810 nu         1 5VJ      -0.372500
     17 H1           2.0820     2.1270     1.8290 ha         1 5VJ       0.116000
     18 H2           2.7780     2.0870     4.1990 ha         1 5VJ       0.110000
     19 H3           3.0190    -0.0630     5.3780 ha         1 5VJ       0.102000
     20 H4           2.5670    -2.1790     4.2080 ha         1 5VJ       0.117000
     21 H5           1.8010    -3.6100     3.4850 ha         1 5VJ       0.112000
     22 H6           1.3640    -5.7740     2.4090 ha         1 5VJ       0.107000
     23 H7           1.1670    -5.9230    -0.0430 ha         1 5VJ       0.103000
     24 H8           1.3990    -3.9010    -1.4240 ha         1 5VJ       0.112000
     25 H9           2.0680    -1.6080    -1.5610 hn         1 5VJ       0.346800
@<TRIPOS>BOND
     1     1     2 2   
     2     2     3 2   
     3     2     4 1   
     4     2    16 1   
     5     4     5 ar  
     6     4     9 ar  
     7     5     6 ar  
     8     5    17 1   
     9     6     7 ar  
    10     6    18 1   
    11     7     8 ar  
    12     7    19 1   
    13     8     9 ar  
    14     8    20 1   
    15     9    10 1   
    16    10    11 ar  
    17    10    15 ar  
    18    11    12 ar  
    19    11    21 1   
    20    12    13 ar  
    21    12    22 1   
    22    13    14 ar  
    23    13    23 1   
    24    14    15 ar  
    25    14    24 1   
    26    15    16 1   
    27    16    25 1   
@<TRIPOS>SUBSTRUCTURE
     1 5VJ         1 TEMP              0 ****  ****    0 ROOT
