@<TRIPOS>MOLECULE
molecule
   24    25     1     0     0
SMALL
bcc


@<TRIPOS>ATOM
      1 C4           0.0000     0.0000     0.0000 ca         1 5VL      -0.101000
      2 C5           1.3840     0.0000     0.0000 ca         1 5VL      -0.154000
      3 C6           2.0780     0.0000     1.1930 ca         1 5VL      -0.095500
      4 C7           1.3840     0.0000     2.4010 cp         1 5VL      -0.053000
      5 C8           2.1260     0.0000     3.6850 cp         1 5VL      -0.053000
      6 C10          3.6100     1.0860     5.2300 ca         1 5VL      -0.154000
      7 C13          2.0350    -1.0950     4.5490 ca         1 5VL       0.146100
      8 C2          -0.0130    -0.0000     2.3980 ca         1 5VL       0.146100
      9 C3          -0.6990     0.0060     1.1930 ca         1 5VL      -0.194000
     10 C9           2.9210     1.0900     4.0340 ca         1 5VL      -0.095500
     11 C11          3.5130     0.0020     6.0850 ca         1 5VL      -0.101000
     12 C12          2.7320    -1.0860     5.7460 ca         1 5VL      -0.194000
     13 O14          1.2660    -2.1640     4.2150 oh         1 5VL      -0.495100
     14 H1          -0.5390     0.0020    -0.9400 ha         1 5VL       0.130000
     15 H2           1.9240    -0.0020    -0.9390 ha         1 5VL       0.131000
     16 H3           3.1620    -0.0000     1.1890 ha         1 5VL       0.136000
     17 H4           4.2260     1.9340     5.5020 ha         1 5VL       0.131000
     18 H5          -1.3500     0.6820     3.5530 ho         1 5VL       0.416000
     19 H6          -1.7820     0.0050     1.1860 ha         1 5VL       0.134500
     20 H7           2.9980     1.9400     3.3660 ha         1 5VL       0.136000
     21 H8           4.0560     0.0050     7.0220 ha         1 5VL       0.130000
     22 H9           2.6620    -1.9330     6.4190 ha         1 5VL       0.134500
     23 H10          1.7660    -2.9560     4.3200 ho         1 5VL       0.416000
     24 O1          -0.6980     0.0010     3.5700 oh         1 5VL      -0.495100
@<TRIPOS>BOND
     1     9     1 ar  
     2     9     8 ar  
     3    24     8 1   
     4     1     2 ar  
     5     8     4 ar  
     6     2     3 ar  
     7     4     3 ar  
     8     4     5 1   
     9    10     5 ar  
    10    10     6 ar  
    11     5     7 ar  
    12     6    11 ar  
    13     7    13 1   
    14     7    12 ar  
    15    11    12 ar  
    16     1    14 1   
    17     2    15 1   
    18     3    16 1   
    19     6    17 1   
    20    24    18 1   
    21     9    19 1   
    22    10    20 1   
    23    11    21 1   
    24    12    22 1   
    25    13    23 1   
@<TRIPOS>SUBSTRUCTURE
     1 5VL         1 TEMP              0 ****  ****    0 ROOT
