@<TRIPOS>MOLECULE
molecule
   15    16     1     0     0
SMALL
bcc


@<TRIPOS>ATOM
      1 OAG          0.0000     0.0000     0.0000 os         1 5VM      -0.196200
      2 CAK          1.3560     0.0000     0.0000 ca         1 5VM       0.045100
      3 CAD          2.3010     0.0000     1.0140 ca         1 5VM      -0.082000
      4 CAC          3.6470    -0.0000     0.7020 ca         1 5VM      -0.110000
      5 CAH          4.0570    -0.0000    -0.6220 ca         1 5VM       0.040400
      6 ClB          5.7510    -0.0000    -1.0020 cl         1 5VM      -0.082400
      7 CAE          3.1220    -0.0000    -1.6390 ca         1 5VM      -0.110000
      8 CAJ          1.7700    -0.0000    -1.3320 ca         1 5VM      -0.041400
      9 NAF          0.6120     0.0010    -2.1100 ns         1 5VM      -0.384100
     10 CAI         -0.4410     0.0000    -1.2680 cs         1 5VM       0.588500
     11 SAA         -2.0860     0.0000    -1.7430 s          1 5VM      -0.528400
     12 H1           1.9840     0.0000     2.0500 ha         1 5VM       0.161000
     13 H2           4.3850    -0.0000     1.4950 ha         1 5VM       0.161000
     14 H3           3.4440    -0.0000    -2.6730 ha         1 5VM       0.156000
     15 H4           0.5710     0.0010    -3.1100 hn         1 5VM       0.384500
@<TRIPOS>BOND
     1     6     5 1
     2     7     5 ar
     3     7     8 ar
     4     9     8 1
     5     9    10 1
     6     5     4 ar
     7     8     2 ar
     8    10    11 2
     9    10     1 1
    10     4     3 ar
    11     2     1 1
    12     2     3 ar
    13     3    12 1
    14     4    13 1
    15     7    14 1
    16     9    15 1
@<TRIPOS>SUBSTRUCTURE
     1 5VM         1 TEMP              0 ****  ****    0 ROOT
