@<TRIPOS>MOLECULE
5VM
   15    16     1     0     0
SMALL
bcc


@<TRIPOS>ATOM
      1 OAG          0.0000     0.0000     0.0000 os         1 5VM      -0.154200
      2 CAK          1.3560     0.0000     0.0000 ca         1 5VM       0.056100
      3 CAD          2.3010     0.0000     1.0140 ca         1 5VM      -0.055000
      4 CAC          3.6470    -0.0000     0.7020 ca         1 5VM      -0.075000
      5 CAH          4.0570    -0.0000    -0.6220 ca         1 5VM      -0.035600
      6 ClB          5.7510    -0.0000    -1.0020 cl         1 5VM       0.002600
      7 CAE          3.1220    -0.0000    -1.6390 ca         1 5VM      -0.062000
      8 CAJ          1.7700    -0.0000    -1.3320 ca         1 5VM      -0.222400
      9 NAF          0.6120     0.0010    -2.1100 ns         1 5VM       0.137900
     10 CAI         -0.4410     0.0000    -1.2680 cs         1 5VM       0.420500
     11 SAA         -2.0860     0.0000    -1.7430 s          1 5VM      -0.594400
     12 H1           1.9840     0.0000     2.0500 ha         1 5VM       0.124000
     13 H2           4.3850    -0.0000     1.4950 ha         1 5VM       0.125000
     14 H3           3.4440    -0.0000    -2.6730 ha         1 5VM       0.123000
     15 H4           0.5710     0.0010    -3.1100 hn         1 5VM       0.208500
@<TRIPOS>BOND
     1     1     2 1   
     2     1    10 1   
     3     2     3 ar  
     4     2     8 ar  
     5     3     4 ar  
     6     3    12 1   
     7     4     5 ar  
     8     4    13 1   
     9     5     6 1   
    10     5     7 ar  
    11     7     8 ar  
    12     7    14 1   
    13     8     9 1   
    14     9    10 1   
    15     9    15 1   
    16    10    11 2   
@<TRIPOS>SUBSTRUCTURE
     1 5VM         1 TEMP              0 ****  ****    0 ROOT
