@<TRIPOS>MOLECULE
molecule
   28    28     1     0     0
SMALL
bcc


@<TRIPOS>ATOM
      1 C21          0.0000     0.0000     0.0000 c          1 5VO       0.890600
      2 O2           1.2080     0.0000     0.0000 o          1 5VO      -0.857800
      3 C22         -0.7550     0.0000     1.3040 c3         1 5VO      -0.181400
      4 C23          0.2390    -0.0070     2.4680 c3         1 5VO      -0.065400
      5 C24         -0.5260    -0.0070     3.7930 c3         1 5VO      -0.079400
      6 C25          0.4670    -0.0150     4.9560 c3         1 5VO      -0.176400
      7 C26         -0.2860    -0.0150     6.2610 c          1 5VO       0.569700
      8 O3          -1.4990    -0.0100     6.2600 o          1 5VO      -0.531100
      9 C27          0.4490    -0.0210     7.5350 ca         1 5VO      -0.169600
     10 C28          1.8470    -0.0220     7.5400 ca         1 5VO      -0.081000
     11 C29          2.5280    -0.0280     8.7390 ca         1 5VO      -0.148500
     12 C30          1.8320    -0.0340     9.9350 ca         1 5VO      -0.112000
     13 C31          0.4480    -0.0340     9.9380 ca         1 5VO      -0.148500
     14 C32         -0.2470    -0.0210     8.7490 ca         1 5VO      -0.081000
     15 OXT         -0.6700     0.0060    -1.1630 o          1 5VO      -0.857800
     16 H1          -1.3810    -0.8820     1.3590 hc         1 5VO       0.029700
     17 H2          -1.3740     0.8870     1.3630 hc         1 5VO       0.029700
     18 H3           0.8580    -0.8940     2.4090 hc         1 5VO       0.042700
     19 H4           0.8660     0.8750     2.4130 hc         1 5VO       0.042700
     20 H5          -1.1450     0.8800     3.8530 hc         1 5VO       0.043700
     21 H6          -1.1530    -0.8890     3.8480 hc         1 5VO       0.043700
     22 H7           1.0940     0.8670     4.9010 hc         1 5VO       0.063700
     23 H8           1.0860    -0.9020     4.8960 hc         1 5VO       0.063700
     24 H9           2.3940    -0.0170     6.6050 ha         1 5VO       0.146500
     25 H10          3.6110    -0.0290     8.7440 ha         1 5VO       0.127000
     26 H11          2.3730    -0.0410    10.8740 ha         1 5VO       0.122000
     27 H12         -0.0900    -0.0360    10.8790 ha         1 5VO       0.127000
     28 H13         -1.3310    -0.0210     8.7540 ha         1 5VO       0.146500
@<TRIPOS>BOND
     1     2     1 1
     2     1    15 1
     3     1     3 1
     4     3     4 1
     5     4     5 1
     6     5     6 1
     7     6     7 1
     8     7     8 2
     9     7     9 1
    10    10     9 ar
    11    10    11 ar
    12     9    14 ar
    13    11    12 ar
    14    14    13 ar
    15    12    13 ar
    16     3    16 1
    17     3    17 1
    18     4    18 1
    19     4    19 1
    20     5    20 1
    21     5    21 1
    22     6    22 1
    23     6    23 1
    24    10    24 1
    25    11    25 1
    26    12    26 1
    27    13    27 1
    28    14    28 1
@<TRIPOS>SUBSTRUCTURE
     1 5VO         1 TEMP              0 ****  ****    0 ROOT
