@<TRIPOS>MOLECULE
molecule
   10     9     1     0     0
SMALL
bcc


@<TRIPOS>ATOM
      1 O            0.0000     0.0000     0.0000 oh         1 5VQ      -0.606800
      2 C1           1.4290     0.0000     0.0000 c3         1 5VQ       0.172600
      3 C2           1.9320     0.0000     1.4200 c2         1 5VQ      -0.164200
      4 C3           2.9070    -0.8020     1.7710 c2         1 5VQ      -0.216000
      5 H1          -0.3140     0.0890    -0.8840 ho         1 5VQ       0.401000
      6 H2           1.4860     0.6630     2.1520 ha         1 5VQ       0.136000
      7 H4           3.2680    -0.8020     2.7920 ha         1 5VQ       0.113500
      8 H5           3.3520    -1.4660     1.0390 ha         1 5VQ       0.113500
      9 H7           1.7910    -0.8840    -0.5110 h1         1 5VQ       0.025200
     10 H8           1.7910     0.8850    -0.5110 h1         1 5VQ       0.025200
@<TRIPOS>BOND
     1     1     2 1
     2     2     3 1
     3     3     4 2
     4     1     5 1
     5     3     6 1
     6     4     7 1
     7     4     8 1
     8     2     9 1
     9     2    10 1
@<TRIPOS>SUBSTRUCTURE
     1 5VQ         1 TEMP              0 ****  ****    0 ROOT
