@<TRIPOS>MOLECULE
molecule
   36    36     1     0     0
SMALL
bcc


@<TRIPOS>ATOM
      1 OAL          0.0000     0.0000     0.0000 o          1 5VR      -0.733533
      2 SAI          1.4220     0.0000     0.0000 s6         1 5VR       1.560300
      3 OAJ          2.1980     0.0000     1.1900 o          1 5VR      -0.733533
      4 OAK          1.8520    -1.2260    -0.7930 o          1 5VR      -0.733533
      5 OAH          1.8510     1.2250    -0.7940 os         1 5VR      -0.447000
      6 NAG          1.0160     1.4980    -1.9640 n7         1 5VR      -0.491700
      7 CAE          1.4880     2.6910    -2.6810 c3         1 5VR       0.135500
      8 CAF          0.3040     3.3770    -3.3660 c3         1 5VR      -0.093400
      9 CB           0.7900     4.6380    -4.0850 c3         1 5VR      -0.085400
     10 CAD          2.5160     2.2780    -3.7390 c3         1 5VR       0.118000
     11 N            2.8790     3.4600    -4.5320 n          1 5VR      -0.499800
     12 CAM          4.1710     3.8170    -4.6800 c          1 5VR       0.658900
     13 OAN          5.0380     3.2190    -4.0790 o          1 5VR      -0.600100
     14 CA           1.8090     4.2470    -5.1590 c3         1 5VR       0.060700
     15 C            2.3930     5.4910    -5.7790 c          1 5VR       0.646100
     16 O            3.2020     6.1520    -5.1630 o          1 5VR      -0.612100
     17 NAQ          2.0160     5.8690    -7.0160 ns         1 5VR      -0.430500
     18 NAR          2.5570     7.0250    -7.5920 ns         1 5VR      -0.434500
     19 CAS          2.1800     7.4030    -8.8280 c          1 5VR       0.654100
     20 OAU          1.3700     6.7420    -9.4440 o          1 5VR      -0.618100
     21 CAT          2.7630     8.6470    -9.4470 c3         1 5VR      -0.162100
     22 HAG          0.0690     1.6360    -1.6740 hn         1 5VR       0.370800
     23 HAE          1.9480     3.3800    -1.9820 h1         1 5VR       0.068700
     24 HB4         -0.4340     3.6490    -2.6210 hc         1 5VR       0.052700
     25 HAF         -0.1360     2.6990    -4.0870 hc         1 5VR       0.052700
     26 HB2         -0.0530     5.1340    -4.5510 hc         1 5VR       0.056700
     27 HB1          1.2580     5.3030    -3.3690 hc         1 5VR       0.056700
     28 HAD          2.0860     1.5250    -4.3880 h1         1 5VR       0.085700
     29 HB3          3.4000     1.8830    -3.2520 h1         1 5VR       0.085700
     30 H1           4.4380     4.6140    -5.3640 h5         1 5VR       0.034200
     31 HA           1.3210     3.6510    -5.9210 h1         1 5VR       0.054700
     32 HAQ          1.3490     5.3220    -7.5240 hn         1 5VR       0.365500
     33 HAR          3.2230     7.5720    -7.0830 hn         1 5VR       0.362500
     34 HAT          3.8390     8.5440    -9.5200 hc         1 5VR       0.064700
     35 HB6          2.5240     9.5050    -8.8290 hc         1 5VR       0.064700
     36 HB5          2.3460     8.7880   -10.4370 hc         1 5VR       0.064700
@<TRIPOS>BOND
     1     1     2 1
     2     2     5 1
     3     2     3 1
     4     2     4 1
     5     5     6 1
     6     8     7 1
     7     8     9 1
     8     7     6 1
     9     7    10 1
    10     9    14 1
    11    10    11 1
    12    18    17 1
    13    18    19 1
    14    17    15 1
    15    14    15 1
    16    14    11 1
    17    15    16 2
    18    11    12 1
    19    21    19 1
    20    19    20 2
    21    12    13 2
    22     6    22 1
    23     7    23 1
    24     8    24 1
    25     8    25 1
    26     9    26 1
    27     9    27 1
    28    10    28 1
    29    10    29 1
    30    12    30 1
    31    14    31 1
    32    17    32 1
    33    18    33 1
    34    21    34 1
    35    21    35 1
    36    21    36 1
@<TRIPOS>SUBSTRUCTURE
     1 5VR         1 TEMP              0 ****  ****    0 ROOT
