@<TRIPOS>MOLECULE
5VR
   36    36     1     0     0
SMALL
bcc


@<TRIPOS>ATOM
      1 OAL          0.0000     0.0000     0.0000 o          1 5VR      -0.676867
      2 SAI          1.4220     0.0000     0.0000 s6         1 5VR       1.328300
      3 OAJ          2.1980     0.0000     1.1900 o          1 5VR      -0.676867
      4 OAK          1.8520    -1.2260    -0.7930 o          1 5VR      -0.676867
      5 OAH          1.8510     1.2250    -0.7940 os         1 5VR      -0.380000
      6 NAG          1.0160     1.4980    -1.9640 n7         1 5VR      -0.292700
      7 CAE          1.4880     2.6910    -2.6810 c3         1 5VR       0.095500
      8 CAF          0.3040     3.3770    -3.3660 c3         1 5VR      -0.034400
      9 CB           0.7900     4.6380    -4.0850 c3         1 5VR      -0.030400
     10 CAD          2.5160     2.2780    -3.7390 c3         1 5VR       0.053000
     11 N            2.8790     3.4600    -4.5320 n          1 5VR      -0.177800
     12 CAM          4.1710     3.8170    -4.6800 c          1 5VR       0.612900
     13 OAN          5.0380     3.2190    -4.0790 o          1 5VR      -0.640100
     14 CA           1.8090     4.2470    -5.1590 c3         1 5VR      -0.017300
     15 C            2.3930     5.4910    -5.7790 c          1 5VR       0.564100
     16 O            3.2020     6.1520    -5.1630 o          1 5VR      -0.648100
     17 NAQ          2.0160     5.8690    -7.0160 ns         1 5VR      -0.143500
     18 NAR          2.5570     7.0250    -7.5920 ns         1 5VR      -0.147500
     19 CAS          2.1800     7.4030    -8.8280 c          1 5VR       0.570100
     20 OAU          1.3700     6.7420    -9.4440 o          1 5VR      -0.658100
     21 CAT          2.7630     8.6470    -9.4470 c3         1 5VR      -0.059100
     22 HAG          0.0690     1.6360    -1.6740 hn         1 5VR       0.264800
     23 HAE          1.9480     3.3800    -1.9820 h1         1 5VR       0.035700
     24 HB4         -0.4340     3.6490    -2.6210 hc         1 5VR       0.022700
     25 HAF         -0.1360     2.6990    -4.0870 hc         1 5VR       0.022700
     26 HB2         -0.0530     5.1340    -4.5510 hc         1 5VR       0.023700
     27 HB1          1.2580     5.3030    -3.3690 hc         1 5VR       0.023700
     28 HAD          2.0860     1.5250    -4.3880 h1         1 5VR       0.053200
     29 HB3          3.4000     1.8830    -3.2520 h1         1 5VR       0.053200
     30 H1           4.4380     4.6140    -5.3640 h5         1 5VR      -0.002800
     31 HA           1.3210     3.6510    -5.9210 h1         1 5VR       0.026700
     32 HAQ          1.3490     5.3220    -7.5240 hn         1 5VR       0.221500
     33 HAR          3.2230     7.5720    -7.0830 hn         1 5VR       0.217500
     34 HAT          3.8390     8.5440    -9.5200 hc         1 5VR       0.024700
     35 HB6          2.5240     9.5050    -8.8290 hc         1 5VR       0.024700
     36 HB5          2.3460     8.7880   -10.4370 hc         1 5VR       0.024700
@<TRIPOS>BOND
     1     1     2 1   
     2     2     3 1   
     3     2     4 1   
     4     2     5 1   
     5     5     6 1   
     6     6     7 1   
     7     6    22 1   
     8     7     8 1   
     9     7    10 1   
    10     7    23 1   
    11     8     9 1   
    12     8    24 1   
    13     8    25 1   
    14     9    14 1   
    15     9    26 1   
    16     9    27 1   
    17    10    11 1   
    18    10    28 1   
    19    10    29 1   
    20    11    12 1   
    21    11    14 1   
    22    12    13 2   
    23    12    30 1   
    24    14    15 1   
    25    14    31 1   
    26    15    16 2   
    27    15    17 1   
    28    17    18 1   
    29    17    32 1   
    30    18    19 1   
    31    18    33 1   
    32    19    20 2   
    33    19    21 1   
    34    21    34 1   
    35    21    35 1   
    36    21    36 1   
@<TRIPOS>SUBSTRUCTURE
     1 5VR         1 TEMP              0 ****  ****    0 ROOT
