@<TRIPOS>MOLECULE
5VS
   51    55     1     0     0
SMALL
bcc


@<TRIPOS>ATOM
      1 C5           0.0000     0.0000     0.0000 c          1 5VS       0.646100
      2 C7           1.4750     0.0000     0.0000 ca         1 5VS      -0.180600
      3 C8           2.2020     0.0000     1.1900 ca         1 5VS      -0.019000
      4 C10          4.2370     0.0150    -0.0730 ca         1 5VS      -0.072400
      5 C15          2.4100    -2.0840    -3.1830 ca         1 5VS      -0.108300
      6 C17          4.2870    -3.4170    -2.5250 ca         1 5VS      -0.101000
      7 C20          2.8970    -2.0370    -4.4760 ca         1 5VS      -0.089000
      8 C22          6.4360     1.0660    -0.5600 ca         1 5VS      -0.277700
      9 C24          7.2390     3.1220    -1.4490 ca         1 5VS      -0.222300
     10 C2           0.1720     0.7720    -2.3050 c3         1 5VS       0.174600
     11 C3           0.5290     2.2520    -2.1570 c3         1 5VS      -0.018100
     12 N4          -0.6220     0.3540    -1.1490 ns         1 5VS      -0.230900
     13 O6          -0.6320    -0.3120     0.9910 o          1 5VS      -0.665500
     14 C9           3.5680     0.0060     1.1490 ca         1 5VS      -0.094000
     15 C11          3.5270     0.0110    -1.2660 ca         1 5VS      -0.090000
     16 C12          2.1420     0.0020    -1.2390 ca         1 5VS       0.044600
     17 N13          1.4050    -0.0110    -2.4120 nh         1 5VS      -0.378000
     18 C14          1.1190    -1.3870    -2.8390 c3         1 5VS       0.190100
     19 C16          3.1030    -2.7770    -2.2090 ca         1 5VS      -0.089000
     20 C18          4.7780    -3.3630    -3.8160 ca         1 5VS      -0.100000
     21 C19          4.0810    -2.6760    -4.7920 ca         1 5VS      -0.101000
     22 N21          5.6340     0.0240    -0.0980 n          1 5VS       0.188800
     23 C23          6.1670     2.3180    -1.0910 ca         1 5VS      -0.046000
     24 C25          8.5260     2.6560    -1.2660 ca         1 5VS       0.406200
     25 N26          8.7540     1.4570    -0.7630 nb         1 5VS      -0.558000
     26 C27          7.7630     0.6570    -0.4030 ca         1 5VS       0.284200
     27 N28          7.7250    -0.6170     0.1480 ns         1 5VS      -0.055400
     28 C30          6.4380    -0.9720     0.3200 c          1 5VS       0.561500
     29 O31          6.0590    -2.0310     0.7820 o          1 5VS      -0.701500
     30 H1           1.6860    -0.0060     2.1420 ha         1 5VS       0.129000
     31 H2           4.8320    -3.9570    -1.7600 ha         1 5VS       0.109500
     32 H3           2.3510    -1.4980    -5.2410 ha         1 5VS       0.110000
     33 H4           7.0690     4.1090    -1.8630 ha         1 5VS       0.118000
     34 H5          -1.1930    -0.3590    -3.5190 hc         1 5VS       0.020867
     35 H6          -1.3630     1.3950    -3.6740 hc         1 5VS       0.020867
     36 H7           0.0020     0.5680    -4.4370 hc         1 5VS       0.020867
     37 H8          -0.3800     2.8410    -2.1300 hc         1 5VS       0.020867
     38 H9           1.0830     2.4000    -1.2380 hc         1 5VS       0.020867
     39 H10          1.1360     2.5620    -2.9990 hc         1 5VS       0.020867
     40 H11         -1.6210     0.3300    -1.2080 hn         1 5VS       0.196500
     41 H12          4.1350     0.0090     2.0720 ha         1 5VS       0.121000
     42 H13          4.0530     0.0180    -2.2130 ha         1 5VS       0.133000
     43 H14          0.4750    -1.3690    -3.7100 h1         1 5VS       0.028700
     44 H15          0.6240    -1.9190    -2.0350 h1         1 5VS       0.028700
     45 H16          2.7200    -2.8170    -1.1960 ha         1 5VS       0.110000
     46 H17          5.7060    -3.8640    -4.0630 ha         1 5VS       0.103000
     47 H18          4.4650    -2.6360    -5.8050 ha         1 5VS       0.109500
     48 H19          5.1470     2.6580    -1.2230 ha         1 5VS       0.117000
     49 H20          9.3640     3.2830    -1.5450 h4         1 5VS      -0.015900
     50 H21          8.5210    -1.1780     0.3780 hn         1 5VS       0.197500
     51 C1          -0.6560     0.5800    -3.5760 c3         1 5VS      -0.018100
@<TRIPOS>BOND
     1     1     2 1   
     2     1    12 1   
     3     1    13 2   
     4     2     3 ar  
     5     2    16 ar  
     6     3    14 ar  
     7     3    30 1   
     8     4    14 ar  
     9     4    15 ar  
    10     4    22 1   
    11     5     7 ar  
    12     5    18 1   
    13     5    19 ar  
    14     6    19 ar  
    15     6    20 ar  
    16     6    31 1   
    17     7    21 ar  
    18     7    32 1   
    19     8    22 1   
    20     8    23 ar  
    21     8    26 ar  
    22     9    23 ar  
    23     9    24 ar  
    24     9    33 1   
    25    10    11 1   
    26    10    12 1   
    27    10    17 1   
    28    10    51 1   
    29    11    37 1   
    30    11    38 1   
    31    11    39 1   
    32    12    40 1   
    33    14    41 1   
    34    15    16 ar  
    35    15    42 1   
    36    16    17 1   
    37    17    18 1   
    38    18    43 1   
    39    18    44 1   
    40    19    45 1   
    41    20    21 ar  
    42    20    46 1   
    43    21    47 1   
    44    22    28 1   
    45    23    48 1   
    46    24    25 ar  
    47    24    49 1   
    48    25    26 ar  
    49    26    27 1   
    50    27    28 1   
    51    27    50 1   
    52    28    29 2   
    53    34    51 1   
    54    35    51 1   
    55    36    51 1   
@<TRIPOS>SUBSTRUCTURE
     1 5VS         1 TEMP              0 ****  ****    0 ROOT
