@<TRIPOS>MOLECULE
molecule
   51    55     1     0     0
SMALL
bcc


@<TRIPOS>ATOM
      1 C5           0.0000     0.0000     0.0000 c          1 5VS       0.716100
      2 C7           1.4750     0.0000     0.0000 ca         1 5VS      -0.183600
      3 C8           2.2020     0.0000     1.1900 ca         1 5VS      -0.055000
      4 C10          4.2370     0.0150    -0.0730 ca         1 5VS       0.080600
      5 C15          2.4100    -2.0840    -3.1830 ca         1 5VS      -0.100300
      6 C17          4.2870    -3.4170    -2.5250 ca         1 5VS      -0.129000
      7 C20          2.8970    -2.0370    -4.4760 ca         1 5VS      -0.112000
      8 C22          6.4360     1.0660    -0.5600 ca         1 5VS      -0.119700
      9 C24          7.2390     3.1220    -1.4490 ca         1 5VS      -0.255300
     10 C2           0.1720     0.7720    -2.3050 c3         1 5VS       0.353600
     11 C3           0.5290     2.2520    -2.1570 c3         1 5VS      -0.099100
     12 N4          -0.6220     0.3540    -1.1490 ns         1 5VS      -0.607900
     13 O6          -0.6320    -0.3120     0.9910 o          1 5VS      -0.630500
     14 C9           3.5680     0.0060     1.1490 ca         1 5VS      -0.131000
     15 C11          3.5270     0.0110    -1.2660 ca         1 5VS      -0.118000
     16 C12          2.1420     0.0020    -1.2390 ca         1 5VS       0.124600
     17 N13          1.4050    -0.0110    -2.4120 nh         1 5VS      -0.606000
     18 C14          1.1190    -1.3870    -2.8390 c3         1 5VS       0.211100
     19 C16          3.1030    -2.7770    -2.2090 ca         1 5VS      -0.112000
     20 C18          4.7780    -3.3630    -3.8160 ca         1 5VS      -0.124000
     21 C19          4.0810    -2.6760    -4.7920 ca         1 5VS      -0.129000
     22 N21          5.6340     0.0240    -0.0980 n          1 5VS      -0.267200
     23 C23          6.1670     2.3180    -1.0910 ca         1 5VS      -0.084000
     24 C25          8.5260     2.6560    -1.2660 ca         1 5VS       0.432200
     25 N26          8.7540     1.4570    -0.7630 nb         1 5VS      -0.694000
     26 C27          7.7630     0.6570    -0.4030 ca         1 5VS       0.494200
     27 N28          7.7250    -0.6170     0.1480 ns         1 5VS      -0.522400
     28 C30          6.4380    -0.9720     0.3200 c          1 5VS       0.810500
     29 O31          6.0590    -2.0310     0.7820 o          1 5VS      -0.639500
     30 H1           1.6860    -0.0060     2.1420 ha         1 5VS       0.162000
     31 H2           4.8320    -3.9570    -1.7600 ha         1 5VS       0.135500
     32 H3           2.3510    -1.4980    -5.2410 ha         1 5VS       0.134500
     33 H4           7.0690     4.1090    -1.8630 ha         1 5VS       0.147000
     34 H5          -1.1930    -0.3590    -3.5190 hc         1 5VS       0.051367
     35 H6          -1.3630     1.3950    -3.6740 hc         1 5VS       0.051367
     36 H7           0.0020     0.5680    -4.4370 hc         1 5VS       0.051367
     37 H8          -0.3800     2.8410    -2.1300 hc         1 5VS       0.051367
     38 H9           1.0830     2.4000    -1.2380 hc         1 5VS       0.051367
     39 H10          1.1360     2.5620    -2.9990 hc         1 5VS       0.051367
     40 H11         -1.6210     0.3300    -1.2080 hn         1 5VS       0.331500
     41 H12          4.1350     0.0090     2.0720 ha         1 5VS       0.151000
     42 H13          4.0530     0.0180    -2.2130 ha         1 5VS       0.162000
     43 H14          0.4750    -1.3690    -3.7100 h1         1 5VS       0.055200
     44 H15          0.6240    -1.9190    -2.0350 h1         1 5VS       0.055200
     45 H16          2.7200    -2.8170    -1.1960 ha         1 5VS       0.134500
     46 H17          5.7060    -3.8640    -4.0630 ha         1 5VS       0.130000
     47 H18          4.4650    -2.6360    -5.8050 ha         1 5VS       0.135500
     48 H19          5.1470     2.6580    -1.2230 ha         1 5VS       0.150000
     49 H20          9.3640     3.2830    -1.5450 h4         1 5VS       0.031100
     50 H21          8.5210    -1.1780     0.3780 hn         1 5VS       0.371500
     51 C1          -0.6560     0.5800    -3.5760 c3         1 5VS      -0.099100
@<TRIPOS>BOND
     1    13     1 2
     2    11    10 1
     3    12     1 1
     4    12    10 1
     5     1     2 1
     6    10    51 1
     7    10    17 1
     8     7    21 ar
     9     7     5 ar
    10    21    20 ar
    11     2     3 ar
    12     2    16 ar
    13    17    18 1
    14    17    16 1
    15     3    14 ar
    16     5    18 1
    17     5    19 ar
    18    20     6 ar
    19    16    15 ar
    20    19     6 ar
    21    14     4 ar
    22    15     4 ar
    23     4    22 1
    24    23     8 ar
    25    23     9 ar
    26    22     8 1
    27    22    28 1
    28     8    26 ar
    29     9    24 ar
    30    29    28 2
    31    28    27 1
    32    26    27 1
    33    26    25 ar
    34    24    25 ar
    35     3    30 1
    36     6    31 1
    37     7    32 1
    38     9    33 1
    39    51    34 1
    40    51    35 1
    41    51    36 1
    42    11    37 1
    43    11    38 1
    44    11    39 1
    45    12    40 1
    46    14    41 1
    47    15    42 1
    48    18    43 1
    49    18    44 1
    50    19    45 1
    51    20    46 1
    52    21    47 1
    53    23    48 1
    54    24    49 1
    55    27    50 1
@<TRIPOS>SUBSTRUCTURE
     1 5VS         1 TEMP              0 ****  ****    0 ROOT
