@<TRIPOS>MOLECULE
5VT
   61    64     1     0     0
SMALL
bcc


@<TRIPOS>ATOM
      1 C2           0.0000     0.0000     0.0000 c3         1 5VT       0.052000
      2 C3          -1.8130     0.0010    -1.6280 c          1 5VT       0.562100
      3 C13         -6.3110    -2.5180    -1.5720 c3         1 5VT       0.124300
      4 C14         -7.7730    -2.6040    -1.9210 ca         1 5VT      -0.110300
      5 C15        -10.4970    -2.7380    -2.5390 ca         1 5VT      -0.082000
      6 C16        -10.0560    -2.0260    -1.4670 ca         1 5VT      -0.105000
      7 C17         -8.6980    -1.9580    -1.1590 ca         1 5VT      -0.078000
      8 C18         -9.5710    -3.4140    -3.3540 ca         1 5VT      -0.039000
      9 C19         -8.1910    -3.3450    -3.0400 ca         1 5VT      -0.021000
     10 C20         -7.2660    -4.0190    -3.8550 ca         1 5VT      -0.102000
     11 C21         -7.7060    -4.7280    -4.9300 ca         1 5VT      -0.095000
     12 C22         -9.0630    -4.7950    -5.2380 ca         1 5VT      -0.102000
     13 C23         -9.9880    -4.1550    -4.4720 ca         1 5VT      -0.086000
     14 C24          1.5310     0.0000     0.0000 c3         1 5VT       0.025900
     15 C25          2.0330     0.0000     1.4210 ca         1 5VT      -0.134300
     16 C26          2.2570     1.1980     2.0740 ca         1 5VT      -0.051000
     17 C27          2.9540     0.0000     4.0290 ca         1 5VT       0.151100
     18 C28          2.7230    -1.2010     3.3740 ca         1 5VT      -0.173500
     19 C29          2.7180     1.2010     3.3760 ca         1 5VT      -0.173500
     20 C30          2.2620    -1.1980     2.0710 ca         1 5VT      -0.051000
     21 N1          -0.4890     0.0010    -1.3810 ns         1 5VT      -0.205900
     22 C4          -2.3160     0.0010    -3.0480 c3         1 5VT      -0.017300
     23 N5          -3.7430    -0.3660    -3.0870 n          1 5VT      -0.171800
     24 C6          -2.2580     1.4310    -3.6400 c3         1 5VT      -0.029400
     25 C7          -4.4060     0.4280    -4.1330 c3         1 5VT       0.048000
     26 C8          -3.3360     1.3520    -4.7530 c3         1 5VT      -0.027400
     27 O9          -2.6010     0.0010    -0.7050 o          1 5VT      -0.597100
     28 C10         -4.3410    -1.2790    -2.2970 c          1 5VT       0.616100
     29 O11         -3.6930    -1.8790    -1.4620 o          1 5VT      -0.676100
     30 N12         -5.6600    -1.5260    -2.4310 ns         1 5VT      -0.228900
     31 O31          3.4080     0.0000     5.3100 os         1 5VT      -0.307900
     32 C32          3.6240     1.2740     5.9220 c3         1 5VT       0.244700
     33 H1          -0.3610     0.8840     0.5110 h1         1 5VT       0.031700
     34 H2          -0.3610    -0.8850     0.5100 h1         1 5VT       0.031700
     35 H3          -5.8470    -3.4850    -1.7210 h1         1 5VT       0.032200
     36 H4          -6.2040    -2.2230    -0.5350 h1         1 5VT       0.032200
     37 H5         -11.5550    -2.7810    -2.7660 ha         1 5VT       0.106000
     38 H6         -10.7710    -1.5030    -0.8440 ha         1 5VT       0.103000
     39 H7          -8.3740    -1.3840    -0.3000 ha         1 5VT       0.110000
     40 H8          -6.2070    -3.9760    -3.6280 ha         1 5VT       0.119000
     41 H9          -6.9900    -5.2470    -5.5560 ha         1 5VT       0.101000
     42 H10         -9.3860    -5.3660    -6.0990 ha         1 5VT       0.101000
     43 H11        -11.0390    -4.2160    -4.7240 ha         1 5VT       0.106000
     44 H12          1.8920     0.8850    -0.5110 hc         1 5VT       0.016200
     45 H13          1.8920    -0.8850    -0.5110 hc         1 5VT       0.016200
     46 H14          2.0730     2.1360     1.5630 ha         1 5VT       0.105000
     47 H15          2.9050    -2.1390     3.8830 ha         1 5VT       0.118500
     48 H16          2.8960     2.1390     3.8870 ha         1 5VT       0.118500
     49 H17          2.0810    -2.1360     1.5590 ha         1 5VT       0.105000
     50 H18          0.1620    -0.0160    -2.1420 hn         1 5VT       0.167500
     51 H19         -1.7370    -0.6810    -3.6580 h1         1 5VT       0.030700
     52 H20         -1.2810     1.6330    -4.0630 hc         1 5VT       0.029200
     53 H21         -2.5270     2.1690    -2.8940 hc         1 5VT       0.029200
     54 H22         -4.8090    -0.2300    -4.8930 h1         1 5VT       0.011700
     55 H23         -5.1970     1.0240    -3.6950 h1         1 5VT       0.011700
     56 H24         -3.7490     2.3330    -4.9540 hc         1 5VT       0.023200
     57 H25         -2.9250     0.9090    -5.6520 hc         1 5VT       0.023200
     58 H26         -6.2010    -1.0080    -3.0950 hn         1 5VT       0.174500
     59 H27          4.3590     1.8290     5.3510 h1         1 5VT      -0.002967
     60 H28          2.6930     1.8260     5.9450 h1         1 5VT      -0.002967
     61 H29          3.9850     1.1310     6.9330 h1         1 5VT      -0.002967
@<TRIPOS>BOND
     1     1    14 1   
     2     1    21 1   
     3     1    33 1   
     4     1    34 1   
     5     2    21 1   
     6     2    22 1   
     7     2    27 2   
     8     3     4 1   
     9     3    30 1   
    10     3    35 1   
    11     3    36 1   
    12     4     7 ar  
    13     4     9 ar  
    14     5     6 ar  
    15     5     8 ar  
    16     5    37 1   
    17     6     7 ar  
    18     6    38 1   
    19     7    39 1   
    20     8     9 ar  
    21     8    13 ar  
    22     9    10 ar  
    23    10    11 ar  
    24    10    40 1   
    25    11    12 ar  
    26    11    41 1   
    27    12    13 ar  
    28    12    42 1   
    29    13    43 1   
    30    14    15 1   
    31    14    44 1   
    32    14    45 1   
    33    15    16 ar  
    34    15    20 ar  
    35    16    19 ar  
    36    16    46 1   
    37    17    18 ar  
    38    17    19 ar  
    39    17    31 1   
    40    18    20 ar  
    41    18    47 1   
    42    19    48 1   
    43    20    49 1   
    44    21    50 1   
    45    22    23 1   
    46    22    24 1   
    47    22    51 1   
    48    23    25 1   
    49    23    28 1   
    50    24    26 1   
    51    24    52 1   
    52    24    53 1   
    53    25    26 1   
    54    25    54 1   
    55    25    55 1   
    56    26    56 1   
    57    26    57 1   
    58    28    29 2   
    59    28    30 1   
    60    30    58 1   
    61    31    32 1   
    62    32    59 1   
    63    32    60 1   
    64    32    61 1   
@<TRIPOS>SUBSTRUCTURE
     1 5VT         1 TEMP              0 ****  ****    0 ROOT
