@<TRIPOS>MOLECULE
molecule
   61    64     1     0     0
SMALL
bcc


@<TRIPOS>ATOM
      1 C2           0.0000     0.0000     0.0000 c3         1 5VT       0.118000
      2 C3          -1.8130     0.0010    -1.6280 c          1 5VT       0.651100
      3 C13         -6.3110    -2.5180    -1.5720 c3         1 5VT       0.179300
      4 C14         -7.7730    -2.6040    -1.9210 ca         1 5VT      -0.105300
      5 C15        -10.4970    -2.7380    -2.5390 ca         1 5VT      -0.109000
      6 C16        -10.0560    -2.0260    -1.4670 ca         1 5VT      -0.131000
      7 C17         -8.6980    -1.9580    -1.1590 ca         1 5VT      -0.105000
      8 C18         -9.5710    -3.4140    -3.3540 ca         1 5VT      -0.039000
      9 C19         -8.1910    -3.3450    -3.0400 ca         1 5VT      -0.026000
     10 C20         -7.2660    -4.0190    -3.8550 ca         1 5VT      -0.120000
     11 C21         -7.7060    -4.7280    -4.9300 ca         1 5VT      -0.125000
     12 C22         -9.0630    -4.7950    -5.2380 ca         1 5VT      -0.126000
     13 C23         -9.9880    -4.1550    -4.4720 ca         1 5VT      -0.116000
     14 C24          1.5310     0.0000     0.0000 c3         1 5VT      -0.049100
     15 C25          2.0330     0.0000     1.4210 ca         1 5VT      -0.123300
     16 C26          2.2570     1.1980     2.0740 ca         1 5VT      -0.083500
     17 C27          2.9540     0.0000     4.0290 ca         1 5VT       0.141100
     18 C28          2.7230    -1.2010     3.3740 ca         1 5VT      -0.187500
     19 C29          2.7180     1.2010     3.3760 ca         1 5VT      -0.187500
     20 C30          2.2620    -1.1980     2.0710 ca         1 5VT      -0.083500
     21 N1          -0.4890     0.0010    -1.3810 ns         1 5VT      -0.594900
     22 C4          -2.3160     0.0010    -3.0480 c3         1 5VT       0.061700
     23 N5          -3.7430    -0.3660    -3.0870 n          1 5VT      -0.503800
     24 C6          -2.2580     1.4310    -3.6400 c3         1 5VT      -0.089400
     25 C7          -4.4060     0.4280    -4.1330 c3         1 5VT       0.095000
     26 C8          -3.3360     1.3520    -4.7530 c3         1 5VT      -0.093400
     27 O9          -2.6010     0.0010    -0.7050 o          1 5VT      -0.560100
     28 C10         -4.3410    -1.2790    -2.2970 c          1 5VT       0.807100
     29 O11         -3.6930    -1.8790    -1.4620 o          1 5VT      -0.630100
     30 N12         -5.6600    -1.5260    -2.4310 ns         1 5VT      -0.602900
     31 O31          3.4080     0.0000     5.3100 os         1 5VT      -0.328900
     32 C32          3.6240     1.2740     5.9220 c3         1 5VT       0.128700
     33 H1          -0.3610     0.8840     0.5110 h1         1 5VT       0.059200
     34 H2          -0.3610    -0.8850     0.5100 h1         1 5VT       0.059200
     35 H3          -5.8470    -3.4850    -1.7210 h1         1 5VT       0.060700
     36 H4          -6.2040    -2.2230    -0.5350 h1         1 5VT       0.060700
     37 H5         -11.5550    -2.7810    -2.7660 ha         1 5VT       0.133000
     38 H6         -10.7710    -1.5030    -0.8440 ha         1 5VT       0.131000
     39 H7          -8.3740    -1.3840    -0.3000 ha         1 5VT       0.137000
     40 H8          -6.2070    -3.9760    -3.6280 ha         1 5VT       0.145000
     41 H9          -6.9900    -5.2470    -5.5560 ha         1 5VT       0.129000
     42 H10         -9.3860    -5.3660    -6.0990 ha         1 5VT       0.128000
     43 H11        -11.0390    -4.2160    -4.7240 ha         1 5VT       0.132000
     44 H12          1.8920     0.8850    -0.5110 hc         1 5VT       0.047700
     45 H13          1.8920    -0.8850    -0.5110 hc         1 5VT       0.047700
     46 H14          2.0730     2.1360     1.5630 ha         1 5VT       0.133500
     47 H15          2.9050    -2.1390     3.8830 ha         1 5VT       0.140000
     48 H16          2.8960     2.1390     3.8870 ha         1 5VT       0.140000
     49 H17          2.0810    -2.1360     1.5590 ha         1 5VT       0.133500
     50 H18          0.1620    -0.0160    -2.1420 hn         1 5VT       0.305500
     51 H19         -1.7370    -0.6810    -3.6580 h1         1 5VT       0.059700
     52 H20         -1.2810     1.6330    -4.0630 hc         1 5VT       0.062200
     53 H21         -2.5270     2.1690    -2.8940 hc         1 5VT       0.062200
     54 H22         -4.8090    -0.2300    -4.8930 h1         1 5VT       0.042200
     55 H23         -5.1970     1.0240    -3.6950 h1         1 5VT       0.042200
     56 H24         -3.7490     2.3330    -4.9540 hc         1 5VT       0.055200
     57 H25         -2.9250     0.9090    -5.6520 hc         1 5VT       0.055200
     58 H26         -6.2010    -1.0080    -3.0950 hn         1 5VT       0.311500
     59 H27          4.3590     1.8290     5.3510 h1         1 5VT       0.041367
     60 H28          2.6930     1.8260     5.9450 h1         1 5VT       0.041367
     61 H29          3.9850     1.1310     6.9330 h1         1 5VT       0.041367
@<TRIPOS>BOND
     1    12    11 ar
     2    12    13 ar
     3    11    10 ar
     4    13     8 ar
     5    10     9 ar
     6     8     9 ar
     7     8     5 ar
     8     9     4 ar
     9     5     6 ar
    10     4     3 1
    11     4     7 ar
    12     6     7 ar
    13     3    30 1
    14    30    28 1
    15    28    29 2
    16    28    23 1
    17    25    23 1
    18    25    26 1
    19    23    22 1
    20    26    24 1
    21    22     2 1
    22    22    24 1
    23    27     2 2
    24     2    21 1
    25    21     1 1
    26     1    14 1
    27    14    15 1
    28    16    19 ar
    29    16    15 ar
    30    19    17 ar
    31    15    20 ar
    32    17    31 1
    33    17    18 ar
    34    20    18 ar
    35    31    32 1
    36     1    33 1
    37     1    34 1
    38     3    35 1
    39     3    36 1
    40     5    37 1
    41     6    38 1
    42     7    39 1
    43    10    40 1
    44    11    41 1
    45    12    42 1
    46    13    43 1
    47    14    44 1
    48    14    45 1
    49    16    46 1
    50    18    47 1
    51    19    48 1
    52    20    49 1
    53    21    50 1
    54    22    51 1
    55    24    52 1
    56    24    53 1
    57    25    54 1
    58    25    55 1
    59    26    56 1
    60    26    57 1
    61    30    58 1
    62    32    59 1
    63    32    60 1
    64    32    61 1
@<TRIPOS>SUBSTRUCTURE
     1 5VT         1 TEMP              0 ****  ****    0 ROOT
