@<TRIPOS>MOLECULE
molecule
   28    29     1     0     0
SMALL
bcc


@<TRIPOS>ATOM
      1 O01          0.0000     0.0000     0.0000 o          1 5VU      -0.648100
      2 C02          1.2160     0.0000     0.0000 c          1 5VU       0.806100
      3 N03          1.8900     0.0000     1.1670 ns         1 5VU      -0.488100
      4 C04          1.1920     0.0950     2.3790 ca         1 5VU       0.026600
      5 C05         -0.0540    -0.5010     2.5120 ca         1 5VU      -0.081000
      6 C06         -0.7410    -0.4060     3.7070 ca         1 5VU      -0.166000
      7 C07         -0.1870     0.2820     4.7730 ca         1 5VU       0.138900
      8 F08         -0.8600     0.3730     5.9410 f          1 5VU      -0.136900
      9 C09          1.0570     0.8780     4.6450 ca         1 5VU      -0.195000
     10 C10          1.7500     0.7810     3.4520 ca         1 5VU       0.119900
     11 F11          2.9670     1.3560     3.3280 f          1 5VU      -0.139900
     12 N12          1.8890    -0.0060    -1.1670 n          1 5VU      -0.511800
     13 C13          1.2840    -0.0130    -2.5070 c3         1 5VU       0.107000
     14 C14          2.4370    -0.0440    -3.5320 c3         1 5VU      -0.096400
     15 C15          3.6170    -0.6260    -2.7090 c3         1 5VU      -0.096400
     16 C16          3.3570    -0.0010    -1.3120 c3         1 5VU       0.107000
     17 H03          2.8850    -0.1080     1.1700 hn         1 5VU       0.328500
     18 H05         -0.4890    -1.0390     1.6790 ha         1 5VU       0.184000
     19 H06         -1.7130    -0.8710     3.8110 ha         1 5VU       0.153000
     20 H09          1.4900     1.4140     5.4810 ha         1 5VU       0.160000
     21 H131         0.6920     0.8830    -2.6470 h1         1 5VU       0.049450
     22 H132         0.6630    -0.8940    -2.6250 h1         1 5VU       0.049450
     23 H161         3.7340     1.0140    -1.2780 h1         1 5VU       0.049450
     24 H162         3.8130    -0.6060    -0.5390 h1         1 5VU       0.049450
     25 H141         2.6690     0.9560    -3.8770 hc         1 5VU       0.057950
     26 H142         2.1930    -0.6970    -4.3620 hc         1 5VU       0.057950
     27 H151         3.5610    -1.7060    -2.6650 hc         1 5VU       0.057950
     28 H152         4.5670    -0.2940    -3.1090 hc         1 5VU       0.057950
@<TRIPOS>BOND
     1     1     2 2
     2     2     3 1
     3     2    12 1
     4     3     4 1
     5     4     5 ar
     6     4    10 ar
     7     5     6 ar
     8     6     7 ar
     9     7     8 1
    10     7     9 ar
    11     9    10 ar
    12    10    11 1
    13    12    13 1
    14    12    16 1
    15    13    14 1
    16    14    15 1
    17    15    16 1
    18     3    17 1
    19     5    18 1
    20     6    19 1
    21     9    20 1
    22    13    21 1
    23    13    22 1
    24    16    23 1
    25    16    24 1
    26    14    25 1
    27    14    26 1
    28    15    27 1
    29    15    28 1
@<TRIPOS>SUBSTRUCTURE
     1 5VU         1 TEMP              0 ****  ****    0 ROOT
