@<TRIPOS>MOLECULE
5VU
   28    29     1     0     0
SMALL
bcc


@<TRIPOS>ATOM
      1 O01          0.0000     0.0000     0.0000 o          1 5VU      -0.697100
      2 C02          1.2160     0.0000     0.0000 c          1 5VU       0.602100
      3 N03          1.8900     0.0000     1.1670 ns         1 5VU      -0.054100
      4 C04          1.1920     0.0950     2.3790 ca         1 5VU      -0.106400
      5 C05         -0.0540    -0.5010     2.5120 ca         1 5VU      -0.060000
      6 C06         -0.7410    -0.4060     3.7070 ca         1 5VU      -0.125000
      7 C07         -0.1870     0.2820     4.7730 ca         1 5VU       0.111900
      8 F08         -0.8600     0.3730     5.9410 f          1 5VU      -0.125900
      9 C09          1.0570     0.8780     4.6450 ca         1 5VU      -0.151000
     10 C10          1.7500     0.7810     3.4520 ca         1 5VU       0.089900
     11 F11          2.9670     1.3560     3.3280 f          1 5VU      -0.127900
     12 N12          1.8890    -0.0060    -1.1670 n          1 5VU      -0.182800
     13 C13          1.2840    -0.0130    -2.5070 c3         1 5VU       0.060000
     14 C14          2.4370    -0.0440    -3.5320 c3         1 5VU      -0.032900
     15 C15          3.6170    -0.6260    -2.7090 c3         1 5VU      -0.032900
     16 C16          3.3570    -0.0010    -1.3120 c3         1 5VU       0.060000
     17 H03          2.8850    -0.1080     1.1700 hn         1 5VU       0.174500
     18 H05         -0.4890    -1.0390     1.6790 ha         1 5VU       0.159000
     19 H06         -1.7130    -0.8710     3.8110 ha         1 5VU       0.123000
     20 H09          1.4900     1.4140     5.4810 ha         1 5VU       0.134000
     21 H131         0.6920     0.8830    -2.6470 h1         1 5VU       0.019450
     22 H132         0.6630    -0.8940    -2.6250 h1         1 5VU       0.019450
     23 H161         3.7340     1.0140    -1.2780 h1         1 5VU       0.019450
     24 H162         3.8130    -0.6060    -0.5390 h1         1 5VU       0.019450
     25 H141         2.6690     0.9560    -3.8770 hc         1 5VU       0.025700
     26 H142         2.1930    -0.6970    -4.3620 hc         1 5VU       0.025700
     27 H151         3.5610    -1.7060    -2.6650 hc         1 5VU       0.025700
     28 H152         4.5670    -0.2940    -3.1090 hc         1 5VU       0.025700
@<TRIPOS>BOND
     1     1     2 2   
     2     2     3 1   
     3     2    12 1   
     4     3     4 1   
     5     3    17 1   
     6     4     5 ar  
     7     4    10 ar  
     8     5     6 ar  
     9     5    18 1   
    10     6     7 ar  
    11     6    19 1   
    12     7     8 1   
    13     7     9 ar  
    14     9    10 ar  
    15     9    20 1   
    16    10    11 1   
    17    12    13 1   
    18    12    16 1   
    19    13    14 1   
    20    13    21 1   
    21    13    22 1   
    22    14    15 1   
    23    14    25 1   
    24    14    26 1   
    25    15    16 1   
    26    15    27 1   
    27    15    28 1   
    28    16    23 1   
    29    16    24 1   
@<TRIPOS>SUBSTRUCTURE
     1 5VU         1 TEMP              0 ****  ****    0 ROOT
