@<TRIPOS>MOLECULE
molecule
   42    43     1     0     0
SMALL
bcc


@<TRIPOS>ATOM
      1 OAL          0.0000     0.0000     0.0000 o          1 5VW      -0.732533
      2 SAI          1.4210     0.0000     0.0000 s6         1 5VW       1.560300
      3 OAJ          1.8510     0.0000     1.4600 o          1 5VW      -0.732533
      4 OAK          2.1990    -0.9990    -0.6470 o          1 5VW      -0.732533
      5 OAH          1.8510     1.3320    -0.5960 os         1 5VW      -0.461000
      6 NAG          3.2870     1.4310    -0.8590 n7         1 5VW      -0.483700
      7 CAE          3.6280     2.7410    -1.4320 c3         1 5VW       0.142500
      8 CAF          3.2310     3.8460    -0.4520 c3         1 5VW      -0.066400
      9 CB           3.6160     5.2080    -1.0350 c3         1 5VW      -0.093400
     10 CAD          2.8710     2.9340    -2.7500 c3         1 5VW       0.070000
     11 N            3.1200     4.2950    -3.2430 n          1 5VW      -0.493800
     12 CAP          3.5810     4.4990    -4.4930 c          1 5VW       0.658900
     13 OAQ          3.8860     3.5530    -5.1890 o          1 5VW      -0.622100
     14 CA           2.8580     5.4300    -2.3480 c3         1 5VW       0.061700
     15 C            3.3330     6.7050    -2.9950 c          1 5VW       0.657100
     16 O            4.4150     6.7420    -3.5420 o          1 5VW      -0.581100
     17 NAN          2.5550     7.8060    -2.9680 ns         1 5VW      -0.471400
     18 OAR          3.0020     9.0040    -3.5770 os         1 5VW      -0.181900
     19 CAS          2.0780    10.0890    -3.4710 c3         1 5VW       0.108100
     20 CAW          2.8220    11.4370    -3.5650 c3         1 5VW      -0.076400
     21 CAV          2.2350    12.1330    -4.8130 c3         1 5VW       0.135800
     22 NAU          0.8930    11.5190    -4.9880 n7         1 5VW      -0.792200
     23 CAT          1.1050    10.0830    -4.6700 c3         1 5VW       0.109800
     24 H23          3.5610     0.7070    -1.4940 hn         1 5VW       0.374800
     25 H4           4.6940     2.7920    -1.6200 h1         1 5VW       0.073700
     26 H5           3.7500     3.6970     0.4870 hc         1 5VW       0.072200
     27 H6           2.1610     3.8140    -0.2880 hc         1 5VW       0.072200
     28 H7           4.6820     5.2310    -1.2260 hc         1 5VW       0.053700
     29 H8           3.3530     5.9890    -0.3310 hc         1 5VW       0.053700
     30 H9           1.8090     2.7990    -2.5810 h1         1 5VW       0.078700
     31 H10          3.2220     2.2150    -3.4790 h1         1 5VW       0.078700
     32 H2           3.6370     5.5040    -4.8920 h5         1 5VW       0.045200
     33 H12          1.7950     5.4930    -2.1460 h1         1 5VW       0.055700
     34 H13          1.6750     7.7840    -2.4920 hn         1 5VW       0.326500
     35 H14          1.5260    10.0300    -2.5410 h1         1 5VW       0.059700
     36 H16          2.6310    12.0320    -2.6800 hc         1 5VW       0.065200
     37 H15          3.8840    11.2710    -3.6930 hc         1 5VW       0.065200
     38 H17          2.8550    11.9360    -5.6790 h1         1 5VW       0.043700
     39 H18          2.1420    13.1980    -4.6410 h1         1 5VW       0.043700
     40 HB6          0.6060    11.6100    -5.9420 hn         1 5VW       0.349800
     41 H22          1.5520     9.5720    -5.5140 h1         1 5VW       0.053700
     42 H21          0.1680     9.6170    -4.3910 h1         1 5VW       0.053700
@<TRIPOS>BOND
     1     4     2 1
     2    10     7 1
     3    10    11 1
     4     7     6 1
     5     7     8 1
     6     6     5 1
     7     2     5 1
     8     2     1 1
     9     2     3 1
    10    11    12 1
    11    11    14 1
    12     8     9 1
    13    12    13 2
    14    16    15 2
    15     9    14 1
    16    14    15 1
    17    15    17 1
    18    17    18 1
    19    18    19 1
    20    23    19 1
    21    23    22 1
    22    19    20 1
    23    22    21 1
    24    20    21 1
    25     6    24 1
    26     7    25 1
    27     8    26 1
    28     8    27 1
    29     9    28 1
    30     9    29 1
    31    10    30 1
    32    10    31 1
    33    12    32 1
    34    14    33 1
    35    17    34 1
    36    19    35 1
    37    20    36 1
    38    20    37 1
    39    21    38 1
    40    21    39 1
    41    22    40 1
    42    23    41 1
    43    23    42 1
@<TRIPOS>SUBSTRUCTURE
     1 5VW         1 TEMP              0 ****  ****    0 ROOT
