@<TRIPOS>MOLECULE
5VW
   42    43     1     0     0
SMALL
bcc


@<TRIPOS>ATOM
      1 OAL          0.0000     0.0000     0.0000 o          1 5VW      -0.675867
      2 SAI          1.4210     0.0000     0.0000 s6         1 5VW       1.327300
      3 OAJ          1.8510     0.0000     1.4600 o          1 5VW      -0.675867
      4 OAK          2.1990    -0.9990    -0.6470 o          1 5VW      -0.675867
      5 OAH          1.8510     1.3320    -0.5960 os         1 5VW      -0.393000
      6 NAG          3.2870     1.4310    -0.8590 n7         1 5VW      -0.290700
      7 CAE          3.6280     2.7410    -1.4320 c3         1 5VW       0.106500
      8 CAF          3.2310     3.8460    -0.4520 c3         1 5VW      -0.023400
      9 CB           3.6160     5.2080    -1.0350 c3         1 5VW      -0.035400
     10 CAD          2.8710     2.9340    -2.7500 c3         1 5VW       0.009000
     11 N            3.1200     4.2950    -3.2430 n          1 5VW      -0.164800
     12 CAP          3.5810     4.4990    -4.4930 c          1 5VW       0.612900
     13 OAQ          3.8860     3.5530    -5.1890 o          1 5VW      -0.663100
     14 CA           2.8580     5.4300    -2.3480 c3         1 5VW      -0.021300
     15 C            3.3330     6.7050    -2.9950 c          1 5VW       0.564100
     16 O            4.4150     6.7420    -3.5420 o          1 5VW      -0.622100
     17 NAN          2.5550     7.8060    -2.9680 ns         1 5VW      -0.070400
     18 OAR          3.0020     9.0040    -3.5770 os         1 5VW      -0.261900
     19 CAS          2.0780    10.0890    -3.4710 c3         1 5VW       0.161100
     20 CAW          2.8220    11.4370    -3.5650 c3         1 5VW      -0.024400
     21 CAV          2.2350    12.1330    -4.8130 c3         1 5VW       0.142800
     22 NAU          0.8930    11.5190    -4.9880 n7         1 5VW      -0.581200
     23 CAT          1.1050    10.0830    -4.6700 c3         1 5VW       0.107800
     24 H23          3.5610     0.7070    -1.4940 hn         1 5VW       0.270800
     25 H4           4.6940     2.7920    -1.6200 h1         1 5VW       0.033700
     26 H5           3.7500     3.6970     0.4870 hc         1 5VW       0.039700
     27 H6           2.1610     3.8140    -0.2880 hc         1 5VW       0.039700
     28 H7           4.6820     5.2310    -1.2260 hc         1 5VW       0.021700
     29 H8           3.3530     5.9890    -0.3310 hc         1 5VW       0.021700
     30 H9           1.8090     2.7990    -2.5810 h1         1 5VW       0.050700
     31 H10          3.2220     2.2150    -3.4790 h1         1 5VW       0.050700
     32 H2           3.6370     5.5040    -4.8920 h5         1 5VW       0.008200
     33 H12          1.7950     5.4930    -2.1460 h1         1 5VW       0.027700
     34 H13          1.6750     7.7840    -2.4920 hn         1 5VW       0.170500
     35 H14          1.5260    10.0300    -2.5410 h1         1 5VW       0.022700
     36 H16          2.6310    12.0320    -2.6800 hc         1 5VW       0.031700
     37 H15          3.8840    11.2710    -3.6930 hc         1 5VW       0.031700
     38 H17          2.8550    11.9360    -5.6790 h1         1 5VW       0.012700
     39 H18          2.1420    13.1980    -4.6410 h1         1 5VW       0.012700
     40 HB6          0.6060    11.6100    -5.9420 hn         1 5VW       0.254800
     41 H22          1.5520     9.5720    -5.5140 h1         1 5VW       0.023200
     42 H21          0.1680     9.6170    -4.3910 h1         1 5VW       0.023200
@<TRIPOS>BOND
     1     1     2 1   
     2     2     3 1   
     3     2     4 1   
     4     2     5 1   
     5     5     6 1   
     6     6     7 1   
     7     6    24 1   
     8     7     8 1   
     9     7    10 1   
    10     7    25 1   
    11     8     9 1   
    12     8    26 1   
    13     8    27 1   
    14     9    14 1   
    15     9    28 1   
    16     9    29 1   
    17    10    11 1   
    18    10    30 1   
    19    10    31 1   
    20    11    12 1   
    21    11    14 1   
    22    12    13 2   
    23    12    32 1   
    24    14    15 1   
    25    14    33 1   
    26    15    16 2   
    27    15    17 1   
    28    17    18 1   
    29    17    34 1   
    30    18    19 1   
    31    19    20 1   
    32    19    23 1   
    33    19    35 1   
    34    20    21 1   
    35    20    36 1   
    36    20    37 1   
    37    21    22 1   
    38    21    38 1   
    39    21    39 1   
    40    22    23 1   
    41    22    40 1   
    42    23    41 1   
    43    23    42 1   
@<TRIPOS>SUBSTRUCTURE
     1 5VW         1 TEMP              0 ****  ****    0 ROOT
