@<TRIPOS>MOLECULE
5VY
   71    74     1     0     0
SMALL
bcc


@<TRIPOS>ATOM
      1 C10          0.0000     0.0000     0.0000 ca         1 5VY       0.004600
      2 C13         -1.0290     1.0570    -3.3950 c3         1 5VY       0.156300
      3 C15         -2.9180     2.3290    -2.5700 c3         1 5VY       0.168100
      4 C17         -2.1510    -0.0000    -0.9810 c3         1 5VY       0.090800
      5 C21          1.7890    -1.3230     6.9110 ca         1 5VY       0.570200
      6 C24          3.7370     0.7140     7.5430 ca         1 5VY      -0.133000
      7 C28          4.1500     4.4520     8.8600 c3         1 5VY      -0.035200
      8 C02          0.6390    -2.1050     6.7830 ca         1 5VY      -0.468900
      9 C03          0.0050    -2.1490     5.5560 ca         1 5VY       0.525200
     10 N04          0.5040    -1.4540     4.5440 nb         1 5VY      -0.728000
     11 C05          1.5960    -0.7210     4.6950 ca         1 5VY       0.735900
     12 N06          2.0850    -0.0090     3.6120 nu         1 5VY      -0.286300
     13 C07          1.3860    -0.0100     2.3980 ca         1 5VY      -0.025400
     14 C08          2.0790     0.0000     1.1960 ca         1 5VY      -0.090000
     15 C09          1.3890     0.0000     0.0000 ca         1 5VY      -0.129000
     16 N11         -0.7000    -0.0010    -1.2110 nh         1 5VY      -0.352000
     17 C12         -0.3020     1.1390    -2.0500 c3         1 5VY       0.090800
     18 N14         -2.4800     1.0580    -3.1650 n3         1 5VY      -0.542600
     19 C16         -2.8790    -0.0810    -2.3260 c3         1 5VY       0.156300
     20 C18         -0.6940    -0.0040     1.2030 ca         1 5VY      -0.129000
     21 C19         -0.0040    -0.0090     2.3990 ca         1 5VY      -0.090000
     22 N20          2.2330    -0.6520     5.8530 nb         1 5VY      -0.750000
     23 C23          3.6220    -0.4830     8.2330 ca         1 5VY       0.009600
     24 C25          4.8990     1.4670     7.6530 ca         1 5VY       0.067600
     25 N26          5.0180     2.6740     6.9590 nu         1 5VY      -0.409500
     26 S27          5.5240     4.0360     7.7510 s6         1 5VY       0.958900
     27 C29          4.0000     3.3580     9.9180 c3         1 5VY       0.021233
     28 C30          4.4350     5.7900     9.5470 c3         1 5VY       0.021233
     29 C31          2.8560     4.5590     8.0510 c3         1 5VY       0.021233
     30 O32          5.6490     5.0120     6.7250 o          1 5VY      -0.583300
     31 O33          6.6550     3.6100     8.4970 o          1 5VY      -0.583300
     32 C34          5.9410     1.0190     8.4550 ca         1 5VY      -0.154000
     33 C35          5.8230    -0.1740     9.1420 ca         1 5VY      -0.063000
     34 C36          4.6690    -0.9260     9.0330 ca         1 5VY      -0.149000
     35 H131        -0.7450     0.1430    -3.9030 h1         1 5VY       0.029950
     36 H132        -0.7590     1.9130    -4.0030 h1         1 5VY       0.029950
     37 H151        -2.6570     3.1460    -3.2310 h1         1 5VY       0.005033
     38 H152        -3.9920     2.3090    -2.4270 h1         1 5VY       0.005033
     39 H153        -2.4280     2.4670    -1.6140 h1         1 5VY       0.005033
     40 H171        -2.4200    -0.8560    -0.3740 h1         1 5VY       0.026450
     41 H172        -2.4340     0.9140    -0.4730 h1         1 5VY       0.026450
     42 H241         2.8920     1.1010     6.9860 ha         1 5VY       0.137000
     43 H011        -0.1460    -2.1980     8.7610 hc         1 5VY       0.003367
     44 H012        -0.7890    -3.4210     7.6560 hc         1 5VY       0.003367
     45 H013         0.8510    -3.5850     8.2990 hc         1 5VY       0.003367
     46 H031        -0.8890    -2.7460     5.4230 h4         1 5VY      -0.017900
     47 H061         2.9370     0.5090     3.6970 hn         1 5VY       0.289800
     48 H081         3.1620    -0.0000     1.1960 ha         1 5VY       0.118500
     49 H091         1.9300     0.0080    -0.9380 ha         1 5VY       0.117500
     50 H121         0.7680     1.1070    -2.2170 h1         1 5VY       0.026450
     51 H122        -0.5680     2.0630    -1.5520 h1         1 5VY       0.026450
     52 H161        -3.9490    -0.0490    -2.1590 h1         1 5VY       0.029950
     53 H162        -2.6130    -1.0060    -2.8240 h1         1 5VY       0.029950
     54 H181        -1.7770    -0.0040     1.2030 ha         1 5VY       0.117500
     55 H191        -0.5450    -0.0120     3.3370 ha         1 5VY       0.118500
     56 H221         2.1060    -1.7420     8.9210 hn         1 5VY       0.294800
     57 H261         4.8520     2.7020     5.9730 hn         1 5VY       0.350800
     58 H291         3.4740     3.7560    10.7780 hc         1 5VY       0.017922
     59 H292         4.9810     3.0130    10.2230 hc         1 5VY       0.017922
     60 H293         3.4390     2.5290     9.5040 hc         1 5VY       0.017922
     61 H301         4.5460     6.5640     8.7970 hc         1 5VY       0.017922
     62 H302         5.3480     5.7120    10.1250 hc         1 5VY       0.017922
     63 H303         3.6110     6.0400    10.2050 hc         1 5VY       0.017922
     64 H311         2.6050     3.5890     7.6410 hc         1 5VY       0.017922
     65 H312         2.0540     4.8960     8.6970 hc         1 5VY       0.017922
     66 H313         2.9920     5.2690     7.2440 hc         1 5VY       0.017922
     67 H341         6.8480     1.6050     8.5420 ha         1 5VY       0.167000
     68 H351         6.6370    -0.5210     9.7670 ha         1 5VY       0.105000
     69 H361         4.5790    -1.8610     9.5730 ha         1 5VY       0.106000
     70 N22          2.4550    -1.2450     8.1250 nu         1 5VY      -0.306300
     71 C01          0.1010    -2.8820     7.9570 c3         1 5VY       0.095200
@<TRIPOS>BOND
     1     1    15 ar  
     2     1    16 1   
     3     1    20 ar  
     4     2    17 1   
     5     2    18 1   
     6     2    35 1   
     7     2    36 1   
     8     3    18 1   
     9     3    37 1   
    10     3    38 1   
    11     3    39 1   
    12     4    16 1   
    13     4    19 1   
    14     4    40 1   
    15     4    41 1   
    16     5     8 ar  
    17     5    22 ar  
    18     5    70 1   
    19     6    23 ar  
    20     6    24 ar  
    21     6    42 1   
    22     7    26 1   
    23     7    27 1   
    24     7    28 1   
    25     7    29 1   
    26     8     9 ar  
    27     8    71 1   
    28     9    10 ar  
    29     9    46 1   
    30    10    11 ar  
    31    11    12 1   
    32    11    22 ar  
    33    12    13 1   
    34    12    47 1   
    35    13    14 ar  
    36    13    21 ar  
    37    14    15 ar  
    38    14    48 1   
    39    15    49 1   
    40    16    17 1   
    41    17    50 1   
    42    17    51 1   
    43    18    19 1   
    44    19    52 1   
    45    19    53 1   
    46    20    21 ar  
    47    20    54 1   
    48    21    55 1   
    49    23    34 ar  
    50    23    70 1   
    51    24    25 1   
    52    24    32 ar  
    53    25    26 1   
    54    25    57 1   
    55    26    30 2   
    56    26    31 2   
    57    27    58 1   
    58    27    59 1   
    59    27    60 1   
    60    28    61 1   
    61    28    62 1   
    62    28    63 1   
    63    29    64 1   
    64    29    65 1   
    65    29    66 1   
    66    32    33 ar  
    67    32    67 1   
    68    33    34 ar  
    69    33    68 1   
    70    34    69 1   
    71    43    71 1   
    72    44    71 1   
    73    45    71 1   
    74    56    70 1   
@<TRIPOS>SUBSTRUCTURE
     1 5VY         1 TEMP              0 ****  ****    0 ROOT
