@<TRIPOS>MOLECULE
molecule
   71    74     1     0     0
SMALL
bcc


@<TRIPOS>ATOM
      1 C10          0.0000     0.0000     0.0000 ca         1 5VY       0.085600
      2 C13         -1.0290     1.0570    -3.3950 c3         1 5VY       0.160300
      3 C15         -2.9180     2.3290    -2.5700 c3         1 5VY       0.141100
      4 C17         -2.1510    -0.0000    -0.9810 c3         1 5VY       0.120800
      5 C21          1.7890    -1.3230     6.9110 ca         1 5VY       0.760200
      6 C24          3.7370     0.7140     7.5430 ca         1 5VY      -0.140000
      7 C28          4.1500     4.4520     8.8600 c3         1 5VY      -0.192200
      8 C02          0.6390    -2.1050     6.7830 ca         1 5VY      -0.446900
      9 C03          0.0050    -2.1490     5.5560 ca         1 5VY       0.524200
     10 N04          0.5040    -1.4540     4.5440 nb         1 5VY      -0.817000
     11 C05          1.5960    -0.7210     4.6950 ca         1 5VY       0.967900
     12 N06          2.0850    -0.0090     3.6120 nu         1 5VY      -0.754300
     13 C07          1.3860    -0.0100     2.3980 ca         1 5VY       0.133600
     14 C08          2.0790     0.0000     1.1960 ca         1 5VY      -0.118500
     15 C09          1.3890     0.0000     0.0000 ca         1 5VY      -0.151000
     16 N11         -0.7000    -0.0010    -1.2110 nh         1 5VY      -0.589000
     17 C12         -0.3020     1.1390    -2.0500 c3         1 5VY       0.120800
     18 N14         -2.4800     1.0580    -3.1650 n3         1 5VY      -0.721600
     19 C16         -2.8790    -0.0810    -2.3260 c3         1 5VY       0.160300
     20 C18         -0.6940    -0.0040     1.2030 ca         1 5VY      -0.151000
     21 C19         -0.0040    -0.0090     2.3990 ca         1 5VY      -0.118500
     22 N20          2.2330    -0.6520     5.8530 nb         1 5VY      -0.852000
     23 C23          3.6220    -0.4830     8.2330 ca         1 5VY       0.160600
     24 C25          4.8990     1.4670     7.6530 ca         1 5VY       0.140600
     25 N26          5.0180     2.6740     6.9590 nu         1 5VY      -0.768500
     26 S27          5.5240     4.0360     7.7510 s6         1 5VY       1.338900
     27 C29          4.0000     3.3580     9.9180 c3         1 5VY      -0.071767
     28 C30          4.4350     5.7900     9.5470 c3         1 5VY      -0.071767
     29 C31          2.8560     4.5590     8.0510 c3         1 5VY      -0.071767
     30 O32          5.6490     5.0120     6.7250 o          1 5VY      -0.631300
     31 O33          6.6550     3.6100     8.4970 o          1 5VY      -0.631300
     32 C34          5.9410     1.0190     8.4550 ca         1 5VY      -0.165000
     33 C35          5.8230    -0.1740     9.1420 ca         1 5VY      -0.098000
     34 C36          4.6690    -0.9260     9.0330 ca         1 5VY      -0.172000
     35 H131        -0.7450     0.1430    -3.9030 h1         1 5VY       0.063700
     36 H132        -0.7590     1.9130    -4.0030 h1         1 5VY       0.063700
     37 H151        -2.6570     3.1460    -3.2310 h1         1 5VY       0.034033
     38 H152        -3.9920     2.3090    -2.4270 h1         1 5VY       0.034033
     39 H153        -2.4280     2.4670    -1.6140 h1         1 5VY       0.034033
     40 H171        -2.4200    -0.8560    -0.3740 h1         1 5VY       0.046200
     41 H172        -2.4340     0.9140    -0.4730 h1         1 5VY       0.046200
     42 H241         2.8920     1.1010     6.9860 ha         1 5VY       0.159000
     43 H011        -0.1460    -2.1980     8.7610 hc         1 5VY       0.039033
     44 H012        -0.7890    -3.4210     7.6560 hc         1 5VY       0.039033
     45 H013         0.8510    -3.5850     8.2990 hc         1 5VY       0.039033
     46 H031        -0.8890    -2.7460     5.4230 h4         1 5VY       0.031100
     47 H061         2.9370     0.5090     3.6970 hn         1 5VY       0.462800
     48 H081         3.1620    -0.0000     1.1960 ha         1 5VY       0.144000
     49 H091         1.9300     0.0080    -0.9380 ha         1 5VY       0.137500
     50 H121         0.7680     1.1070    -2.2170 h1         1 5VY       0.046200
     51 H122        -0.5680     2.0630    -1.5520 h1         1 5VY       0.046200
     52 H161        -3.9490    -0.0490    -2.1590 h1         1 5VY       0.063700
     53 H162        -2.6130    -1.0060    -2.8240 h1         1 5VY       0.063700
     54 H181        -1.7770    -0.0040     1.2030 ha         1 5VY       0.137500
     55 H191        -0.5450    -0.0120     3.3370 ha         1 5VY       0.144000
     56 H221         2.1060    -1.7420     8.9210 hn         1 5VY       0.462800
     57 H261         4.8520     2.7020     5.9730 hn         1 5VY       0.465800
     58 H291         3.4740     3.7560    10.7780 hc         1 5VY       0.050589
     59 H292         4.9810     3.0130    10.2230 hc         1 5VY       0.050589
     60 H293         3.4390     2.5290     9.5040 hc         1 5VY       0.050589
     61 H301         4.5460     6.5640     8.7970 hc         1 5VY       0.050589
     62 H302         5.3480     5.7120    10.1250 hc         1 5VY       0.050589
     63 H303         3.6110     6.0400    10.2050 hc         1 5VY       0.050589
     64 H311         2.6050     3.5890     7.6410 hc         1 5VY       0.050589
     65 H312         2.0540     4.8960     8.6970 hc         1 5VY       0.050589
     66 H313         2.9920     5.2690     7.2440 hc         1 5VY       0.050589
     67 H341         6.8480     1.6050     8.5420 ha         1 5VY       0.181000
     68 H351         6.6370    -0.5210     9.7670 ha         1 5VY       0.139000
     69 H361         4.5790    -1.8610     9.5730 ha         1 5VY       0.131000
     70 N22          2.4550    -1.2450     8.1250 nu         1 5VY      -0.767300
     71 C01          0.1010    -2.8820     7.9570 c3         1 5VY      -0.027800
@<TRIPOS>BOND
     1     1    15 ar
     2     1    16 1
     3     1    20 ar
     4     2    17 1
     5     2    18 1
     6     3    18 1
     7     4    16 1
     8     4    19 1
     9     5     8 ar
    10     5    22 ar
    11     5    70 1
    12     6    23 ar
    13     6    24 ar
    14     7    26 1
    15     7    27 1
    16     7    28 1
    17     7    29 1
    18    71     8 1
    19     8     9 ar
    20     9    10 ar
    21    10    11 ar
    22    11    12 1
    23    11    22 ar
    24    12    13 1
    25    13    14 ar
    26    13    21 ar
    27    14    15 ar
    28    16    17 1
    29    18    19 1
    30    20    21 ar
    31    70    23 1
    32    23    34 ar
    33    24    25 1
    34    24    32 ar
    35    25    26 1
    36    26    30 2
    37    26    31 2
    38    32    33 ar
    39    33    34 ar
    40     2    35 1
    41     2    36 1
    42     3    37 1
    43     3    38 1
    44     3    39 1
    45     4    40 1
    46     4    41 1
    47     6    42 1
    48    71    43 1
    49    71    44 1
    50    71    45 1
    51     9    46 1
    52    12    47 1
    53    14    48 1
    54    15    49 1
    55    17    50 1
    56    17    51 1
    57    19    52 1
    58    19    53 1
    59    20    54 1
    60    21    55 1
    61    70    56 1
    62    25    57 1
    63    27    58 1
    64    27    59 1
    65    27    60 1
    66    28    61 1
    67    28    62 1
    68    28    63 1
    69    29    64 1
    70    29    65 1
    71    29    66 1
    72    32    67 1
    73    33    68 1
    74    34    69 1
@<TRIPOS>SUBSTRUCTURE
     1 5VY         1 TEMP              0 ****  ****    0 ROOT
