@<TRIPOS>MOLECULE
molecule
   71    74     1     0     0
SMALL
bcc


@<TRIPOS>ATOM
      1 C13          0.0000     0.0000     0.0000 ca         1 5VZ      -0.088000
      2 C15         -0.0050    -0.0000     2.4000 ca         1 5VZ       0.185600
      3 C17         -1.9080     0.6850     3.7130 ca         1 5VZ       0.759200
      4 C20         -3.8640     1.3000     4.9360 ca         1 5VZ       0.524200
      5 C22         -3.4890     2.0950     2.8040 ca         1 5VZ       0.967900
      6 C24         -5.1840     3.4650     1.7670 ca         1 5VZ       0.135600
      7 C26         -6.6160     5.3200     1.2600 ca         1 5VZ      -0.150500
      8 Cl1          2.2500     0.0000    -1.5030 cl         1 5VZ      -0.111400
      9 C02          1.3820     0.0000     0.0000 ca         1 5VZ      -0.029600
     10 C03          2.0780     0.0000     1.2040 ca         1 5VZ       0.174600
     11 N04          3.4760    -0.0000     1.2050 nu         1 5VZ      -0.756500
     12 S05          4.3030    -0.8360     2.3690 s6         1 5VZ       1.338900
     13 C06          3.8910    -2.5760     2.0570 c3         1 5VZ      -0.191200
     14 C07          4.3410    -2.9610     0.6470 c3         1 5VZ      -0.072767
     15 C08          4.6040    -3.4610     3.0820 c3         1 5VZ      -0.072767
     16 C09          2.3780    -2.7710     2.1800 c3         1 5VZ      -0.072767
     17 O10          5.6710    -0.5880     2.0740 o          1 5VZ      -0.627800
     18 O11          3.7260    -0.3990     3.5920 o          1 5VZ      -0.627800
     19 C12          1.3830    -0.0000     2.4050 ca         1 5VZ      -0.217000
     20 C14         -0.6940     0.0000     1.1950 ca         1 5VZ      -0.139000
     21 N16         -0.7090    -0.0010     3.6090 nu         1 5VZ      -0.763300
     22 C18         -2.6760     0.5980     4.8770 ca         1 5VZ      -0.443900
     23 C19         -2.2180    -0.2410     6.0410 c3         1 5VZ      -0.029800
     24 N21         -4.2390     2.0280     3.8940 nb         1 5VZ      -0.815000
     25 N23         -3.9160     2.8680     1.7380 nu         1 5VZ      -0.755300
     26 C25         -5.3680     4.7320     1.2300 ca         1 5VZ      -0.118000
     27 C27         -7.6880     4.6440     1.8270 ca         1 5VZ       0.086600
     28 N28         -8.9540     5.2400     1.8570 nh         1 5VZ      -0.589000
     29 C29         -9.9380     4.3550     2.4980 c3         1 5VZ       0.120800
     30 C30        -11.2870     5.0730     2.5830 c3         1 5VZ       0.160800
     31 N31        -11.7240     5.4500     1.2310 n3         1 5VZ      -0.721600
     32 C32        -11.9760     4.2590     0.4090 c3         1 5VZ       0.141100
     33 C33        -10.7410     6.3340     0.5900 c3         1 5VZ       0.160800
     34 C34         -9.3920     5.6160     0.5050 c3         1 5VZ       0.120800
     35 C35         -7.5060     3.3740     2.3590 ca         1 5VZ      -0.150500
     36 C36         -6.2570     2.7860     2.3290 ca         1 5VZ      -0.118000
     37 N37         -2.3440     1.4390     2.7080 nb         1 5VZ      -0.852000
     38 H131        -0.5400     0.0000    -0.9390 ha         1 5VZ       0.148000
     39 H201        -4.4840     1.2540     5.8230 h4         1 5VZ       0.031100
     40 H261        -6.7600     6.3080     0.8410 ha         1 5VZ       0.138000
     41 H041         3.9760     0.4930     0.4930 hn         1 5VZ       0.474800
     42 H071         4.1260    -4.0090     0.4730 hc         1 5VZ       0.051367
     43 H072         5.4070    -2.7910     0.5480 hc         1 5VZ       0.051367
     44 H073         3.8110    -2.3580    -0.0800 hc         1 5VZ       0.051367
     45 H081         5.6750    -3.3140     3.0030 hc         1 5VZ       0.051367
     46 H082         4.3680    -4.5000     2.8880 hc         1 5VZ       0.051367
     47 H083         4.2750    -3.1960     4.0790 hc         1 5VZ       0.051367
     48 H091         2.0220    -2.2790     3.0770 hc         1 5VZ       0.051367
     49 H092         1.8870    -2.3430     1.3140 hc         1 5VZ       0.051367
     50 H093         2.1540    -3.8290     2.2360 hc         1 5VZ       0.051367
     51 H121         1.9230    -0.0010     3.3450 ha         1 5VZ       0.199000
     52 H141        -1.7780     0.0000     1.1910 ha         1 5VZ       0.165000
     53 H161        -0.3460    -0.4980     4.3980 hn         1 5VZ       0.467800
     54 H191        -2.9530    -0.1880     6.8350 hc         1 5VZ       0.040367
     55 H192        -2.1030    -1.2700     5.7220 hc         1 5VZ       0.040367
     56 H193        -1.2670     0.1330     6.4040 hc         1 5VZ       0.040367
     57 H231        -3.3210     2.9980     0.9440 hn         1 5VZ       0.464800
     58 H251        -4.5310     5.2600     0.7870 ha         1 5VZ       0.142500
     59 H291        -9.6010     4.1050     3.4970 h1         1 5VZ       0.046200
     60 H292       -10.0470     3.4520     1.9110 h1         1 5VZ       0.046200
     61 H301       -12.0210     4.4110     3.0270 h1         1 5VZ       0.063450
     62 H302       -11.1830     5.9650     3.1890 h1         1 5VZ       0.063450
     63 H321       -11.0550     3.7010     0.2890 h1         1 5VZ       0.034033
     64 H322       -12.7150     3.6340     0.8960 h1         1 5VZ       0.034033
     65 H323       -12.3440     4.5620    -0.5630 h1         1 5VZ       0.034033
     66 H331       -10.6320     7.2380     1.1770 h1         1 5VZ       0.063450
     67 H332       -11.0790     6.5840    -0.4090 h1         1 5VZ       0.063450
     68 H341        -9.4960     4.7240    -0.1010 h1         1 5VZ       0.046200
     69 H342        -8.6590     6.2780     0.0610 h1         1 5VZ       0.046200
     70 H351        -8.3430     2.8460     2.7990 ha         1 5VZ       0.138000
     71 H361        -6.1150     1.7960     2.7440 ha         1 5VZ       0.142500
@<TRIPOS>BOND
     1     1     9 ar  
     2     1    20 ar  
     3     2    19 ar  
     4     2    20 ar  
     5     2    21 1   
     6     3    21 1   
     7     3    22 ar  
     8     3    37 ar  
     9     4    22 ar  
    10     4    24 ar  
    11     5    24 ar  
    12     5    25 1   
    13     5    37 ar  
    14     6    25 1   
    15     6    26 ar  
    16     6    36 ar  
    17     7    26 ar  
    18     7    27 ar  
    19     8     9 1   
    20     9    10 ar  
    21    10    11 1   
    22    10    19 ar  
    23    11    12 1   
    24    12    13 1   
    25    12    17 2   
    26    12    18 2   
    27    13    14 1   
    28    13    15 1   
    29    13    16 1   
    30    22    23 1   
    31    27    28 1   
    32    27    35 ar  
    33    28    29 1   
    34    28    34 1   
    35    29    30 1   
    36    30    31 1   
    37    31    32 1   
    38    31    33 1   
    39    33    34 1   
    40    35    36 ar  
    41     1    38 1   
    42     4    39 1   
    43     7    40 1   
    44    11    41 1   
    45    14    42 1   
    46    14    43 1   
    47    14    44 1   
    48    15    45 1   
    49    15    46 1   
    50    15    47 1   
    51    16    48 1   
    52    16    49 1   
    53    16    50 1   
    54    19    51 1   
    55    20    52 1   
    56    21    53 1   
    57    23    54 1   
    58    23    55 1   
    59    23    56 1   
    60    25    57 1   
    61    26    58 1   
    62    29    59 1   
    63    29    60 1   
    64    30    61 1   
    65    30    62 1   
    66    32    63 1   
    67    32    64 1   
    68    32    65 1   
    69    33    66 1   
    70    33    67 1   
    71    34    68 1   
    72    34    69 1   
    73    35    70 1   
    74    36    71 1   
@<TRIPOS>SUBSTRUCTURE
     1 5VZ         1 TEMP              0 ****  ****    0 ROOT
