@<TRIPOS>MOLECULE
5W0
   71    74     1     0     0
SMALL
bcc


@<TRIPOS>ATOM
      1 C10          0.0000     0.0000     0.0000 ca         1 5W0      -0.111000
      2 N12         -2.0970    -0.0010     1.2000 nu         1 5W0      -0.288300
      3 C13         -2.7880    -0.6700     0.2030 ca         1 5W0       0.733900
      4 C15         -2.7370    -2.0460    -1.6460 ca         1 5W0       0.525200
      5 C20         -6.8660    -0.4180     0.1730 ca         1 5W0       0.014600
      6 C21         -6.3990    -0.4610     1.4810 ca         1 5W0      -0.126000
      7 C22         -7.0750     0.2090     2.4810 ca         1 5W0      -0.059000
      8 C24         -8.6930     0.9730     0.8790 ca         1 5W0       0.079600
      9 N02          5.9650    -1.0490     0.0800 n3         1 5W0      -0.551600
     10 C03          5.6690     0.3730     0.3100 c3         1 5W0       0.154300
     11 C04          4.1610     0.6020     0.1880 c3         1 5W0       0.149300
     12 N05          3.4590    -0.2430     1.1640 nh         1 5W0      -0.393000
     13 C06          3.7550    -1.6630     0.9350 c3         1 5W0       0.149300
     14 C07          5.2640    -1.8940     1.0560 c3         1 5W0       0.154300
     15 C08          2.0750     0.0000     1.2030 ca         1 5W0      -0.034400
     16 C09          1.3810     0.0000     0.0000 ca         1 5W0      -0.098000
     17 C11         -0.6960    -0.0010     1.2020 ca         1 5W0       0.026600
     18 N14         -2.1120    -1.3930    -0.6770 nb         1 5W0      -0.727000
     19 C16         -4.1140    -1.9690    -1.7340 ca         1 5W0      -0.461900
     20 C18         -4.7990    -1.2030    -0.7900 ca         1 5W0       0.568200
     21 N19         -6.1810    -1.0960    -0.8390 nu         1 5W0      -0.301300
     22 C23         -8.2190     0.9240     2.1850 ca         1 5W0      -0.173000
     23 N25         -9.8500     1.6960     0.5810 nu         1 5W0      -0.407500
     24 S26        -10.0600     3.2150     1.2070 s6         1 5W0       0.959900
     25 O27        -11.3330     3.6200     0.7200 o          1 5W0      -0.582300
     26 O28         -9.8250     3.0560     2.5990 o          1 5W0      -0.582300
     27 C29         -8.7440     4.2040     0.4480 c3         1 5W0      -0.034200
     28 C30         -8.9050     4.1850    -1.0740 c3         1 5W0       0.020567
     29 C31         -8.8340     5.6460     0.9520 c3         1 5W0       0.020567
     30 C32         -7.3820     3.6160     0.8230 c3         1 5W0       0.020567
     31 C33         -8.0180     0.2970    -0.1260 ca         1 5W0      -0.177000
     32 N34         -4.1080    -0.5730     0.1560 nb         1 5W0      -0.743000
     33 C35         -0.0040     0.0010     2.4050 ca         1 5W0      -0.170000
     34 C36          1.3790     0.0000     2.4070 ca         1 5W0       0.146900
     35 F37          2.0330    -0.2360     3.5650 f          1 5W0      -0.122900
     36 H101        -0.5410     0.0000    -0.9390 ha         1 5W0       0.139000
     37 H121        -2.5990     0.5120     1.8970 hn         1 5W0       0.294800
     38 H151        -2.1750    -2.6350    -2.3600 h4         1 5W0      -0.016900
     39 H171        -5.5390    -3.4150    -2.3760 hc         1 5W0       0.004367
     40 H172        -4.1520    -3.2200    -3.4570 hc         1 5W0       0.004367
     41 H173        -5.4210    -1.9880    -3.4150 hc         1 5W0       0.004367
     42 H211        -5.5020    -1.0210     1.7170 ha         1 5W0       0.135000
     43 H221        -6.7080     0.1730     3.5000 ha         1 5W0       0.106000
     44 H011         7.9020    -0.6840    -0.6330 h1         1 5W0       0.000033
     45 H012         7.6050    -2.3430    -0.0950 h1         1 5W0       0.000033
     46 H013         7.7990    -1.0480     1.0950 h1         1 5W0       0.000033
     47 H031         6.1860     0.9720    -0.4300 h1         1 5W0       0.015200
     48 H032         5.9970     0.6530     1.3030 h1         1 5W0       0.015200
     49 H041         3.9390     1.6430     0.3870 h1         1 5W0       0.017950
     50 H042         3.8370     0.3430    -0.8130 h1         1 5W0       0.017950
     51 H061         3.2390    -2.2630     1.6750 h1         1 5W0       0.017950
     52 H062         3.4270    -1.9440    -0.0590 h1         1 5W0       0.017950
     53 H071         5.5880    -1.6350     2.0570 h1         1 5W0       0.015200
     54 H072         5.4860    -2.9350     0.8560 h1         1 5W0       0.015200
     55 H091         1.9230     0.0010    -0.9380 ha         1 5W0       0.119000
     56 H191        -6.6870    -1.5050    -1.5980 hn         1 5W0       0.293800
     57 H231        -8.7480     1.4490     2.9720 ha         1 5W0       0.173000
     58 H251       -10.5710     1.2800     0.0270 hn         1 5W0       0.348800
     59 H301        -8.9370     3.1600    -1.4210 hc         1 5W0       0.018478
     60 H302        -9.8260     4.6880    -1.3460 hc         1 5W0       0.018478
     61 H303        -8.0660     4.6960    -1.5320 hc         1 5W0       0.018478
     62 H311        -8.6610     5.6660     2.0210 hc         1 5W0       0.018478
     63 H312        -9.8190     6.0420     0.7380 hc         1 5W0       0.018478
     64 H313        -8.0850     6.2490     0.4530 hc         1 5W0       0.018478
     65 H321        -6.6110     4.3610     0.6670 hc         1 5W0       0.018478
     66 H322        -7.1790     2.7510     0.2030 hc         1 5W0       0.018478
     67 H323        -7.3920     3.3190     1.8650 hc         1 5W0       0.018478
     68 H331        -8.3850     0.3320    -1.1450 ha         1 5W0       0.110000
     69 H351        -0.5460     0.0000     3.3430 ha         1 5W0       0.123000
     70 C17         -4.8590    -2.6990    -2.8220 c3         1 5W0       0.094200
     71 C01          7.4130    -1.2970     0.1140 c3         1 5W0       0.189100
@<TRIPOS>BOND
     1     1    16 ar  
     2     1    17 ar  
     3     1    36 1   
     4     2     3 1   
     5     2    17 1   
     6     2    37 1   
     7     3    18 ar  
     8     3    32 ar  
     9     4    18 ar  
    10     4    19 ar  
    11     4    38 1   
    12     5     6 ar  
    13     5    21 1   
    14     5    31 ar  
    15     6     7 ar  
    16     6    42 1   
    17     7    22 ar  
    18     7    43 1   
    19     8    22 ar  
    20     8    23 1   
    21     8    31 ar  
    22     9    10 1   
    23     9    14 1   
    24     9    71 1   
    25    10    11 1   
    26    10    47 1   
    27    10    48 1   
    28    11    12 1   
    29    11    49 1   
    30    11    50 1   
    31    12    13 1   
    32    12    15 1   
    33    13    14 1   
    34    13    51 1   
    35    13    52 1   
    36    14    53 1   
    37    14    54 1   
    38    15    16 ar  
    39    15    34 ar  
    40    16    55 1   
    41    17    33 ar  
    42    19    20 ar  
    43    19    70 1   
    44    20    21 1   
    45    20    32 ar  
    46    21    56 1   
    47    22    57 1   
    48    23    24 1   
    49    23    58 1   
    50    24    25 2   
    51    24    26 2   
    52    24    27 1   
    53    27    28 1   
    54    27    29 1   
    55    27    30 1   
    56    28    59 1   
    57    28    60 1   
    58    28    61 1   
    59    29    62 1   
    60    29    63 1   
    61    29    64 1   
    62    30    65 1   
    63    30    66 1   
    64    30    67 1   
    65    31    68 1   
    66    33    34 ar  
    67    33    69 1   
    68    34    35 1   
    69    39    70 1   
    70    40    70 1   
    71    41    70 1   
    72    44    71 1   
    73    45    71 1   
    74    46    71 1   
@<TRIPOS>SUBSTRUCTURE
     1 5W0         1 TEMP              0 ****  ****    0 ROOT
