@<TRIPOS>MOLECULE
molecule
   71    74     1     0     0
SMALL
bcc


@<TRIPOS>ATOM
      1 C10          0.0000     0.0000     0.0000 ca         1 5W0      -0.134000
      2 N12         -2.0970    -0.0010     1.2000 nu         1 5W0      -0.754300
      3 C13         -2.7880    -0.6700     0.2030 ca         1 5W0       0.964900
      4 C15         -2.7370    -2.0460    -1.6460 ca         1 5W0       0.524200
      5 C20         -6.8660    -0.4180     0.1730 ca         1 5W0       0.167600
      6 C21         -6.3990    -0.4610     1.4810 ca         1 5W0      -0.138000
      7 C22         -7.0750     0.2090     2.4810 ca         1 5W0      -0.097000
      8 C24         -8.6930     0.9730     0.8790 ca         1 5W0       0.153600
      9 N02          5.9650    -1.0490     0.0800 n3         1 5W0      -0.735600
     10 C03          5.6690     0.3730     0.3100 c3         1 5W0       0.162300
     11 C04          4.1610     0.6020     0.1880 c3         1 5W0       0.177300
     12 N05          3.4590    -0.2430     1.1640 nh         1 5W0      -0.626000
     13 C06          3.7550    -1.6630     0.9350 c3         1 5W0       0.177300
     14 C07          5.2640    -1.8940     1.0560 c3         1 5W0       0.162300
     15 C08          2.0750     0.0000     1.2030 ca         1 5W0       0.034600
     16 C09          1.3810     0.0000     0.0000 ca         1 5W0      -0.126000
     17 C11         -0.6960    -0.0010     1.2020 ca         1 5W0       0.183600
     18 N14         -2.1120    -1.3930    -0.6770 nb         1 5W0      -0.817000
     19 C16         -4.1140    -1.9690    -1.7340 ca         1 5W0      -0.441900
     20 C18         -4.7990    -1.2030    -0.7900 ca         1 5W0       0.760200
     21 N19         -6.1810    -1.0960    -0.8390 nu         1 5W0      -0.764300
     22 C23         -8.2190     0.9240     2.1850 ca         1 5W0      -0.181000
     23 N25         -9.8500     1.6960     0.5810 nu         1 5W0      -0.767500
     24 S26        -10.0600     3.2150     1.2070 s6         1 5W0       1.338900
     25 O27        -11.3330     3.6200     0.7200 o          1 5W0      -0.629800
     26 O28         -9.8250     3.0560     2.5990 o          1 5W0      -0.629800
     27 C29         -8.7440     4.2040     0.4480 c3         1 5W0      -0.191200
     28 C30         -8.9050     4.1850    -1.0740 c3         1 5W0      -0.071100
     29 C31         -8.8340     5.6460     0.9520 c3         1 5W0      -0.071100
     30 C32         -7.3820     3.6160     0.8230 c3         1 5W0      -0.071100
     31 C33         -8.0180     0.2970    -0.1260 ca         1 5W0      -0.193000
     32 N34         -4.1080    -0.5730     0.1560 nb         1 5W0      -0.847000
     33 C35         -0.0040     0.0010     2.4050 ca         1 5W0      -0.206000
     34 C36          1.3790     0.0000     2.4070 ca         1 5W0       0.170900
     35 F37          2.0330    -0.2360     3.5650 f          1 5W0      -0.128900
     36 H101        -0.5410     0.0000    -0.9390 ha         1 5W0       0.162000
     37 H121        -2.5990     0.5120     1.8970 hn         1 5W0       0.468800
     38 H151        -2.1750    -2.6350    -2.3600 h4         1 5W0       0.032100
     39 H171        -5.5390    -3.4150    -2.3760 hc         1 5W0       0.040367
     40 H172        -4.1520    -3.2200    -3.4570 hc         1 5W0       0.040367
     41 H173        -5.4210    -1.9880    -3.4150 hc         1 5W0       0.040367
     42 H211        -5.5020    -1.0210     1.7170 ha         1 5W0       0.159000
     43 H221        -6.7080     0.1730     3.5000 ha         1 5W0       0.139000
     44 H011         7.9020    -0.6840    -0.6330 h1         1 5W0       0.032033
     45 H012         7.6050    -2.3430    -0.0950 h1         1 5W0       0.032033
     46 H013         7.7990    -1.0480     1.0950 h1         1 5W0       0.032033
     47 H031         6.1860     0.9720    -0.4300 h1         1 5W0       0.042450
     48 H032         5.9970     0.6530     1.3030 h1         1 5W0       0.042450
     49 H041         3.9390     1.6430     0.3870 h1         1 5W0       0.044200
     50 H042         3.8370     0.3430    -0.8130 h1         1 5W0       0.044200
     51 H061         3.2390    -2.2630     1.6750 h1         1 5W0       0.044200
     52 H062         3.4270    -1.9440    -0.0590 h1         1 5W0       0.044200
     53 H071         5.5880    -1.6350     2.0570 h1         1 5W0       0.042450
     54 H072         5.4860    -2.9350     0.8560 h1         1 5W0       0.042450
     55 H091         1.9230     0.0010    -0.9380 ha         1 5W0       0.145000
     56 H191        -6.6870    -1.5050    -1.5980 hn         1 5W0       0.462800
     57 H231        -8.7480     1.4490     2.9720 ha         1 5W0       0.185000
     58 H251       -10.5710     1.2800     0.0270 hn         1 5W0       0.464800
     59 H301        -8.9370     3.1600    -1.4210 hc         1 5W0       0.051033
     60 H302        -9.8260     4.6880    -1.3460 hc         1 5W0       0.051033
     61 H303        -8.0660     4.6960    -1.5320 hc         1 5W0       0.051033
     62 H311        -8.6610     5.6660     2.0210 hc         1 5W0       0.051033
     63 H312        -9.8190     6.0420     0.7380 hc         1 5W0       0.051033
     64 H313        -8.0850     6.2490     0.4530 hc         1 5W0       0.051033
     65 H321        -6.6110     4.3610     0.6670 hc         1 5W0       0.051033
     66 H322        -7.1790     2.7510     0.2030 hc         1 5W0       0.051033
     67 H323        -7.3920     3.3190     1.8650 hc         1 5W0       0.051033
     68 H331        -8.3850     0.3320    -1.1450 ha         1 5W0       0.133000
     69 H351        -0.5460     0.0000     3.3430 ha         1 5W0       0.148000
     70 C17         -4.8590    -2.6990    -2.8220 c3         1 5W0      -0.028800
     71 C01          7.4130    -1.2970     0.1140 c3         1 5W0       0.152100
@<TRIPOS>BOND
     1     1    16 ar  
     2     1    17 ar  
     3     2     3 1   
     4     2    17 1   
     5     3    18 ar  
     6     3    32 ar  
     7     4    18 ar  
     8     4    19 ar  
     9    70    19 1   
    10     5     6 ar  
    11     5    21 1   
    12     5    31 ar  
    13     6     7 ar  
    14     7    22 ar  
    15     8    22 ar  
    16     8    23 1   
    17     8    31 ar  
    18    71     9 1   
    19     9    10 1   
    20     9    14 1   
    21    10    11 1   
    22    11    12 1   
    23    12    13 1   
    24    12    15 1   
    25    13    14 1   
    26    15    16 ar  
    27    15    34 ar  
    28    17    33 ar  
    29    19    20 ar  
    30    20    21 1   
    31    20    32 ar  
    32    23    24 1   
    33    24    25 2   
    34    24    26 2   
    35    24    27 1   
    36    27    28 1   
    37    27    29 1   
    38    27    30 1   
    39    33    34 ar  
    40    34    35 1   
    41     1    36 1   
    42     2    37 1   
    43     4    38 1   
    44    70    39 1   
    45    70    40 1   
    46    70    41 1   
    47     6    42 1   
    48     7    43 1   
    49    71    44 1   
    50    71    45 1   
    51    71    46 1   
    52    10    47 1   
    53    10    48 1   
    54    11    49 1   
    55    11    50 1   
    56    13    51 1   
    57    13    52 1   
    58    14    53 1   
    59    14    54 1   
    60    16    55 1   
    61    21    56 1   
    62    22    57 1   
    63    23    58 1   
    64    28    59 1   
    65    28    60 1   
    66    28    61 1   
    67    29    62 1   
    68    29    63 1   
    69    29    64 1   
    70    30    65 1   
    71    30    66 1   
    72    30    67 1   
    73    31    68 1   
    74    33    69 1   
@<TRIPOS>SUBSTRUCTURE
     1 5W0         1 TEMP              0 ****  ****    0 ROOT
