@<TRIPOS>MOLECULE
5W1
   71    74     1     0     0
SMALL
bcc


@<TRIPOS>ATOM
      1 C13          0.0000     0.0000     0.0000 ca         1 5W1      -0.143000
      2 C20         -4.8670    -2.7470     5.1810 c3         1 5W1       0.092200
      3 C21         -4.8030    -1.2270     3.1660 ca         1 5W1       0.565200
      4 C24         -6.3930    -0.4610     0.9010 ca         1 5W1      -0.126000
      5 C26         -8.2170     0.9240     0.2010 ca         1 5W1      -0.096600
      6 C28         -8.6990     0.9560     1.5050 ca         1 5W1       0.096600
      7 C01          7.5270     0.0410    -0.0000 c3         1 5W1       0.189100
      8 N02          6.0580     0.0400    -0.0000 n3         1 5W1      -0.551600
      9 C03          5.5310    -1.1900     0.6060 c3         1 5W1       0.153800
     10 C04          4.0030    -1.1880     0.5150 c3         1 5W1       0.148300
     11 C05          5.5310     1.2290     0.6860 c3         1 5W1       0.153800
     12 C06          4.0030     1.2320     0.5950 c3         1 5W1       0.148300
     13 N07          3.4760     0.0000     1.2010 nh         1 5W1      -0.392000
     14 C08          2.0750     0.0000     1.2010 ca         1 5W1      -0.042400
     15 C09          1.3800     0.0010     2.4060 ca         1 5W1       0.152900
     16 F10          2.0550     0.0000     3.5760 f          1 5W1      -0.120900
     17 C11         -0.0020     0.0000     2.4050 ca         1 5W1      -0.143000
     18 C12          1.3810     0.0000     0.0000 ca         1 5W1      -0.090000
     19 C14         -0.6950    -0.0010     1.2020 ca         1 5W1       0.029600
     20 N15         -2.0960     0.0000     1.2000 nu         1 5W1      -0.292300
     21 C16         -2.7900    -0.6820     2.1870 ca         1 5W1       0.731900
     22 N17         -2.1160    -1.4140     3.0610 nb         1 5W1      -0.724000
     23 C18         -2.7440    -2.0850     4.0150 ca         1 5W1       0.525200
     24 C19         -4.1210    -2.0070     4.1020 ca         1 5W1      -0.456900
     25 C23         -6.8680    -0.4340     2.2060 ca         1 5W1       0.030600
     26 C25         -7.0680     0.2180    -0.0960 ca         1 5W1      -0.058000
     27 N29         -9.8620     1.6700     1.8050 nu         1 5W1      -0.400500
     28 S30         -9.9970     2.4610     3.2530 s6         1 5W1       0.961900
     29 C31         -8.7300     3.7570     3.1810 c3         1 5W1      -0.031200
     30 C32         -9.0130     4.6820     1.9960 c3         1 5W1       0.018900
     31 C33         -8.7540     4.5680     4.4780 c3         1 5W1       0.018900
     32 C34         -7.3520     3.1150     3.0070 c3         1 5W1       0.018900
     33 O35        -11.2970     3.0330     3.2200 o          1 5W1      -0.582800
     34 O36         -9.6520     1.4800     4.2220 o          1 5W1      -0.582800
     35 C37         -8.0230     0.2750     2.5080 ca         1 5W1      -0.217000
     36 N38         -4.1100    -0.5850     2.2320 nb         1 5W1      -0.745000
     37 H131        -0.5410    -0.0000    -0.9380 ha         1 5W1       0.110000
     38 H201        -4.1620    -3.2750     5.8110 hc         1 5W1       0.006033
     39 H202        -5.5480    -3.4570     4.7270 hc         1 5W1       0.006033
     40 H203        -5.4290    -2.0410     5.7810 hc         1 5W1       0.006033
     41 H241        -5.4920    -1.0140     0.6650 ha         1 5W1       0.139000
     42 H011         7.8870     0.9420    -0.4830 h1         1 5W1       0.000033
     43 H012         7.8880     0.0090     1.0200 h1         1 5W1       0.000033
     44 H013         7.8880    -0.8260    -0.5390 h1         1 5W1       0.000033
     45 H031         5.8300    -1.2350     1.6460 h1         1 5W1       0.015200
     46 H032         5.9220    -2.0490     0.0740 h1         1 5W1       0.015200
     47 H041         3.7040    -1.1660    -0.5260 h1         1 5W1       0.017700
     48 H042         3.6130    -2.0810     0.9900 h1         1 5W1       0.017700
     49 H051         5.9210     2.1210     0.2120 h1         1 5W1       0.015200
     50 H052         5.8300     1.2060     1.7270 h1         1 5W1       0.015200
     51 H061         3.7040     1.2780    -0.4450 h1         1 5W1       0.017700
     52 H062         3.6130     2.0910     1.1270 h1         1 5W1       0.017700
     53 H111        -0.5440     0.0000     3.3430 ha         1 5W1       0.151000
     54 H121         1.9230     0.0010    -0.9380 ha         1 5W1       0.117000
     55 H151        -2.5950     0.5230     0.5080 hn         1 5W1       0.294800
     56 H181        -2.1830    -2.6800     4.7250 h4         1 5W1      -0.014900
     57 H221        -6.6940    -1.5430     3.9650 hn         1 5W1       0.301800
     58 H251        -6.6950     0.1950    -1.1130 ha         1 5W1       0.113000
     59 H291       -10.6340     1.6580     1.1680 hn         1 5W1       0.357800
     60 H321        -9.9410     5.2140     2.1670 hc         1 5W1       0.019367
     61 H322        -9.0960     4.0940     1.0900 hc         1 5W1       0.019367
     62 H323        -8.2030     5.3940     1.8910 hc         1 5W1       0.019367
     63 H331        -8.4730     3.9310     5.3080 hc         1 5W1       0.019367
     64 H332        -9.7520     4.9560     4.6430 hc         1 5W1       0.019367
     65 H333        -8.0550     5.3920     4.4020 hc         1 5W1       0.019367
     66 H341        -6.5830     3.8540     3.1950 hc         1 5W1       0.019367
     67 H342        -7.2530     2.7410     1.9960 hc         1 5W1       0.019367
     68 H343        -7.2450     2.2960     3.7080 hc         1 5W1       0.019367
     69 H371        -8.3960     0.2980     3.5250 ha         1 5W1       0.191000
     70 N22         -6.1850    -1.1200     3.2140 nu         1 5W1      -0.298300
     71 Cl1         -9.0610     1.7740    -1.0560 cl         1 5W1      -0.026400
@<TRIPOS>BOND
     1     1    18 ar  
     2     1    19 ar  
     3     1    37 1   
     4     2    24 1   
     5     2    38 1   
     6     2    39 1   
     7     2    40 1   
     8     3    24 ar  
     9     3    36 ar  
    10     3    70 1   
    11     4    25 ar  
    12     4    26 ar  
    13     4    41 1   
    14     5     6 ar  
    15     5    26 ar  
    16     5    71 1   
    17     6    27 1   
    18     6    35 ar  
    19     7     8 1   
    20     7    42 1   
    21     7    43 1   
    22     7    44 1   
    23     8     9 1   
    24     8    11 1   
    25     9    10 1   
    26     9    45 1   
    27     9    46 1   
    28    10    13 1   
    29    10    47 1   
    30    10    48 1   
    31    11    12 1   
    32    11    49 1   
    33    11    50 1   
    34    12    13 1   
    35    12    51 1   
    36    12    52 1   
    37    13    14 1   
    38    14    15 ar  
    39    14    18 ar  
    40    15    16 1   
    41    15    17 ar  
    42    17    19 ar  
    43    17    53 1   
    44    18    54 1   
    45    19    20 1   
    46    20    21 1   
    47    20    55 1   
    48    21    22 ar  
    49    21    36 ar  
    50    22    23 ar  
    51    23    24 ar  
    52    23    56 1   
    53    25    35 ar  
    54    25    70 1   
    55    26    58 1   
    56    27    28 1   
    57    27    59 1   
    58    28    29 1   
    59    28    33 2   
    60    28    34 2   
    61    29    30 1   
    62    29    31 1   
    63    29    32 1   
    64    30    60 1   
    65    30    61 1   
    66    30    62 1   
    67    31    63 1   
    68    31    64 1   
    69    31    65 1   
    70    32    66 1   
    71    32    67 1   
    72    32    68 1   
    73    35    69 1   
    74    57    70 1   
@<TRIPOS>SUBSTRUCTURE
     1 5W1         1 TEMP              0 ****  ****    0 ROOT
