@<TRIPOS>MOLECULE
5W2
   76    79     1     0     0
SMALL
bcc


@<TRIPOS>ATOM
      1 C13          0.0000     0.0000     0.0000 ca         1 5W2      -0.056000
      2 C15         -0.0030     0.0010     2.4010 ca         1 5W2       0.027600
      3 C17         -1.9650    -0.5770     3.6790 ca         1 5W2       0.565200
      4 C20         -3.9650    -1.0900     4.8770 ca         1 5W2       0.525200
      5 C22         -3.6810    -1.7570     2.6890 ca         1 5W2       0.732900
      6 C24         -5.4690    -2.9430     1.6030 ca         1 5W2       0.049600
      7 C26         -7.5310    -3.4440     0.4840 ca         1 5W2       0.203900
      8 C28         -8.0240    -4.0080     1.6680 ca         1 5W2      -0.212600
      9 Cl1          2.2500     0.0010    -1.5030 cl         1 5W2      -0.024400
     10 C02          1.3820     0.0000     0.0000 ca         1 5W2      -0.098600
     11 C03          2.0790     0.0000     1.2040 ca         1 5W2       0.097600
     12 N04          3.4760     0.0010     1.2030 nu         1 5W2      -0.400500
     13 S05          4.3040    -0.8340     2.3690 s6         1 5W2       0.960900
     14 C06          3.8690    -2.5710     2.0760 c3         1 5W2      -0.030200
     15 C07          4.3030    -2.9750     0.6660 c3         1 5W2       0.017567
     16 C08          4.5820    -3.4550     3.1030 c3         1 5W2       0.017567
     17 C09          2.3550    -2.7480     2.2150 c3         1 5W2       0.017567
     18 O10          5.6730    -0.6050     2.0580 o          1 5W2      -0.583300
     19 O11          3.7440    -0.3790     3.5920 o          1 5W2      -0.583300
     20 C12          1.3840     0.0010     2.4050 ca         1 5W2      -0.219000
     21 C14         -0.6930     0.0000     1.1950 ca         1 5W2      -0.137000
     22 N16         -0.7070    -0.0010     3.6090 nu         1 5W2      -0.289300
     23 C18         -2.7160    -0.5010     4.8540 ca         1 5W2      -0.454900
     24 C19         -2.1750     0.2060     6.0700 c3         1 5W2       0.092200
     25 N21         -4.4130    -1.7040     3.7930 nb         1 5W2      -0.729000
     26 N23         -4.1840    -2.4090     1.5750 nu         1 5W2      -0.285300
     27 C25         -6.2580    -2.9150     0.4570 ca         1 5W2      -0.192000
     28 F27         -8.3020    -3.4150    -0.6260 f          1 5W2      -0.108900
     29 C29         -9.3840    -4.5760     1.7050 c          1 5W2       0.600700
     30 N30         -9.8570    -5.1180     2.8450 ns         1 5W2      -0.195900
     31 C31        -11.2080    -5.6820     2.8830 c3         1 5W2       0.017700
     32 C32        -11.7360    -5.6520     4.3200 c3         1 5W2      -0.040900
     33 C33        -13.1230    -6.2980     4.3620 c3         1 5W2       0.161800
     34 N34        -13.0340    -7.6830     3.8840 n3         1 5W2      -0.548600
     35 C35        -14.3190    -8.3770     4.0400 c3         1 5W2       0.188100
     36 C36        -12.5740    -7.7350     2.4890 c3         1 5W2       0.161800
     37 C37        -11.1710    -7.1310     2.3900 c3         1 5W2      -0.040900
     38 O38        -10.0790    -4.5550     0.7070 o          1 5W2      -0.638100
     39 C39         -7.2220    -4.0350     2.8120 ca         1 5W2      -0.040000
     40 C40         -5.9610    -3.5090     2.7760 ca         1 5W2      -0.137000
     41 N41         -2.4790    -1.2050     2.6260 nb         1 5W2      -0.743000
     42 H131        -0.5410    -0.0000    -0.9390 ha         1 5W2       0.114000
     43 H201        -4.5720    -1.0510     5.7740 h4         1 5W2      -0.015900
     44 H041         3.9750     0.5570     0.5370 hn         1 5W2       0.358800
     45 H071         5.3700    -2.8210     0.5580 hc         1 5W2       0.019700
     46 H072         4.0710    -4.0210     0.5030 hc         1 5W2       0.019700
     47 H073         3.7750    -2.3710    -0.0610 hc         1 5W2       0.019700
     48 H081         4.3190    -4.4920     2.9300 hc         1 5W2       0.019700
     49 H082         4.2770    -3.1670     4.1010 hc         1 5W2       0.019700
     50 H083         5.6530    -3.3330     3.0030 hc         1 5W2       0.019700
     51 H091         2.0130    -2.2430     3.1110 hc         1 5W2       0.019700
     52 H092         2.1200    -3.8030     2.2830 hc         1 5W2       0.019700
     53 H093         1.8610    -2.3220     1.3500 hc         1 5W2       0.019700
     54 H121         1.9240     0.0010     3.3450 ha         1 5W2       0.189000
     55 H141        -1.7760     0.0000     1.1910 ha         1 5W2       0.149000
     56 H161        -0.3120     0.4370     4.4180 hn         1 5W2       0.301800
     57 H191        -2.0240     1.2540     5.8410 hc         1 5W2       0.006367
     58 H192        -1.2310    -0.2400     6.3570 hc         1 5W2       0.006367
     59 H193        -2.8810     0.1130     6.8860 hc         1 5W2       0.006367
     60 H231        -3.6090    -2.5310     0.7650 hn         1 5W2       0.296800
     61 H251        -5.8710    -2.4780    -0.4560 ha         1 5W2       0.126000
     62 H301        -9.2980    -5.1020     3.6750 hn         1 5W2       0.178500
     63 H311       -11.8660    -5.1020     2.2460 h1         1 5W2       0.057700
     64 H321       -11.0610    -6.2040     4.9640 hc         1 5W2       0.025950
     65 H322       -11.8060    -4.6240     4.6570 hc         1 5W2       0.025950
     66 H331       -13.4910    -6.2920     5.3810 h1         1 5W2       0.010700
     67 H332       -13.7990    -5.7400     3.7260 h1         1 5W2       0.010700
     68 H351       -15.0720    -7.8820     3.4400 h1         1 5W2       0.000367
     69 H352       -14.2160    -9.4060     3.7150 h1         1 5W2       0.000367
     70 H353       -14.6160    -8.3570     5.0820 h1         1 5W2       0.000367
     71 H361       -12.5470    -8.7660     2.1580 h1         1 5W2       0.010700
     72 H362       -13.2550    -7.1680     1.8660 h1         1 5W2       0.010700
     73 H371       -10.4880    -7.7030     3.0060 hc         1 5W2       0.025950
     74 H372       -10.8410    -7.1530     1.3590 hc         1 5W2       0.025950
     75 H391        -7.6000    -4.4720     3.7280 ha         1 5W2       0.105000
     76 H401        -5.3420    -3.5320     3.6650 ha         1 5W2       0.148000
@<TRIPOS>BOND
     1     1    10 ar  
     2     1    21 ar  
     3     1    42 1   
     4     2    20 ar  
     5     2    21 ar  
     6     2    22 1   
     7     3    22 1   
     8     3    23 ar  
     9     3    41 ar  
    10     4    23 ar  
    11     4    25 ar  
    12     4    43 1   
    13     5    25 ar  
    14     5    26 1   
    15     5    41 ar  
    16     6    26 1   
    17     6    27 ar  
    18     6    40 ar  
    19     7     8 ar  
    20     7    27 ar  
    21     7    28 1   
    22     8    29 1   
    23     8    39 ar  
    24     9    10 1   
    25    10    11 ar  
    26    11    12 1   
    27    11    20 ar  
    28    12    13 1   
    29    12    44 1   
    30    13    14 1   
    31    13    18 2   
    32    13    19 2   
    33    14    15 1   
    34    14    16 1   
    35    14    17 1   
    36    15    45 1   
    37    15    46 1   
    38    15    47 1   
    39    16    48 1   
    40    16    49 1   
    41    16    50 1   
    42    17    51 1   
    43    17    52 1   
    44    17    53 1   
    45    20    54 1   
    46    21    55 1   
    47    22    56 1   
    48    23    24 1   
    49    24    57 1   
    50    24    58 1   
    51    24    59 1   
    52    26    60 1   
    53    27    61 1   
    54    29    30 1   
    55    29    38 2   
    56    30    31 1   
    57    30    62 1   
    58    31    32 1   
    59    31    37 1   
    60    31    63 1   
    61    32    33 1   
    62    32    64 1   
    63    32    65 1   
    64    33    34 1   
    65    33    66 1   
    66    33    67 1   
    67    34    35 1   
    68    34    36 1   
    69    35    68 1   
    70    35    69 1   
    71    35    70 1   
    72    36    37 1   
    73    36    71 1   
    74    36    72 1   
    75    37    73 1   
    76    37    74 1   
    77    39    40 ar  
    78    39    75 1   
    79    40    76 1   
@<TRIPOS>SUBSTRUCTURE
     1 5W2         1 TEMP              0 ****  ****    0 ROOT
