@<TRIPOS>MOLECULE
molecule
   58    60     1     0     0
SMALL
bcc


@<TRIPOS>ATOM
      1 C1           0.0000     0.0000     0.0000 cc         1 5W3      -0.065300
      2 C2          -0.8810     0.0010    -1.1850 ca         1 5W3      -0.078800
      3 C3          -1.9850    -0.8530    -1.2380 ca         1 5W3      -0.010000
      4 C4          -2.8070    -0.8490    -2.3460 ca         1 5W3      -0.241000
      5 C5          -2.5360     0.0020    -3.4090 ca         1 5W3       0.232100
      6 C6          -1.4400     0.8520    -3.3620 ca         1 5W3      -0.338500
      7 C7          -0.6170     0.8600    -2.2550 ca         1 5W3       0.025000
      8 S8          -1.1040     1.9310    -4.7140 sy         1 5W3       1.435200
      9 O9          -2.3290     2.5780    -5.0260 o          1 5W3      -0.636300
     10 O10          0.0850     2.6350    -4.3800 o          1 5W3      -0.636300
     11 N11         -0.7320     0.9790    -6.0180 n7         1 5W3      -0.909100
     12 O17         -3.3470     0.0020    -4.4990 os         1 5W3      -0.330900
     13 C18         -4.4570    -0.8980    -4.4830 c3         1 5W3       0.128700
     14 C19          1.3790     0.0000     0.0000 cc         1 5W3       0.072400
     15 C20          2.2620     0.0020    -1.2210 c3         1 5W3      -0.011900
     16 N21          1.7950     0.0000     1.2620 nc         1 5W3      -0.289600
     17 N22         -0.3940     0.0070     1.3130 na         1 5W3       0.227200
     18 C23          0.7460    -0.0000     2.0740 cd         1 5W3      -0.122300
     19 N24         -1.6490     0.0130     1.9250 nd         1 5W3      -0.535800
     20 C25         -1.7630     0.0180     3.2300 cc         1 5W3       0.553300
     21 C26         -0.6310     0.0150     4.0500 cc         1 5W3      -0.411300
     22 C27          0.6290     0.0040     3.4840 cd         1 5W3       0.312600
     23 Cl          -3.3420     0.0270     3.9520 cl         1 5W3      -0.124000
     24 N29          1.7640    -0.0010     4.2860 nu         1 5W3      -0.778600
     25 C30          1.6290     0.0090     5.7460 c3         1 5W3       0.210800
     26 C31          3.0190     0.0030     6.3860 c3         1 5W3       0.097000
     27 N32          2.8840     0.0130     7.8450 ns         1 5W3      -0.593900
     28 C33          3.9860     0.0090     8.6230 c          1 5W3       0.659100
     29 C34          3.8470     0.0190    10.1230 c3         1 5W3      -0.170100
     30 O35          5.0870    -0.0010     8.1150 o          1 5W3      -0.600100
     31 C11         -1.7490     0.0930    -6.5910 c3         1 5W3       0.242800
     32 C12         -1.2920    -0.3800    -7.9730 c3         1 5W3       0.127400
     33 O1          -0.1210    -1.1860    -7.8370 oh         1 5W3      -0.611800
     34 H1          -2.1970    -1.5170    -0.4090 ha         1 5W3       0.148000
     35 H2          -3.6630    -1.5110    -2.3870 ha         1 5W3       0.142000
     36 H3           0.2380     1.5240    -2.2190 ha         1 5W3       0.168000
     37 H4           0.1760     1.0350    -6.4350 hn         1 5W3       0.462800
     38 H5          -5.0210    -0.7930    -5.4020 h1         1 5W3       0.047700
     39 H6          -5.0960    -0.6670    -3.6390 h1         1 5W3       0.047700
     40 H7          -4.0960    -1.9150    -4.3950 h1         1 5W3       0.047700
     41 H8           1.8730    -0.7000    -1.9490 hc         1 5W3       0.054700
     42 H9           2.2800     0.9960    -1.6520 hc         1 5W3       0.054700
     43 H10          3.2670    -0.2890    -0.9400 hc         1 5W3       0.054700
     44 H11         -0.7410     0.0190     5.1270 ha         1 5W3       0.156000
     45 H12          2.6720    -0.0350     3.8680 hn         1 5W3       0.469800
     46 H13          1.0940     0.9000     6.0530 h1         1 5W3       0.050700
     47 H14          1.0810    -0.8690     6.0640 h1         1 5W3       0.050700
     48 H15          3.5540    -0.8880     6.0790 h1         1 5W3       0.063700
     49 H16          3.5680     0.8810     6.0680 h1         1 5W3       0.063700
     50 H17          1.9760     0.0510     8.2630 hn         1 5W3       0.313500
     51 H18          3.2900    -0.8540    10.4400 hc         1 5W3       0.063033
     52 H19          3.3210     0.9140    10.4320 hc         1 5W3       0.063033
     53 H20          4.8310     0.0030    10.5770 hc         1 5W3       0.063033
     54 H21         -2.6850     0.6310    -6.6850 h1         1 5W3       0.060200
     55 H22         -1.8880    -0.7640    -5.9440 h1         1 5W3       0.060200
     56 H23         -1.0690     0.4800    -8.5930 h1         1 5W3       0.029700
     57 H24         -2.0810    -0.9620    -8.4340 h1         1 5W3       0.029700
     58 H25          0.0420    -1.6430    -8.6460 ho         1 5W3       0.404000
@<TRIPOS>BOND
     1    29    28 1   
     2    33    32 1   
     3    30    28 2   
     4    23    20 1   
     5    28    27 1   
     6    32    31 1   
     7    27    26 1   
     8    21    20 1   
     9    21    22 2   
    10    20    19 2   
    11    25    26 1   
    12    25    24 1   
    13    24    22 1   
    14    31    11 1   
    15    22    18 1   
    16    19    17 1   
    17    11     8 1   
    18     9     8 2   
    19    18    17 1   
    20    18    16 2   
    21    17     1 1   
    22     8     6 1   
    23     8    10 2   
    24     7     6 ar  
    25     7     2 ar  
    26     6     5 ar  
    27    16    14 1   
    28     1     2 1   
    29     1    14 2   
    30     2     3 ar  
    31    13    12 1   
    32    14    15 1   
    33     5    12 1   
    34     5     4 ar  
    35     3     4 ar  
    36     3    34 1   
    37     4    35 1   
    38     7    36 1   
    39    11    37 1   
    40    13    38 1   
    41    13    39 1   
    42    13    40 1   
    43    15    41 1   
    44    15    42 1   
    45    15    43 1   
    46    21    44 1   
    47    24    45 1   
    48    25    46 1   
    49    25    47 1   
    50    26    48 1   
    51    26    49 1   
    52    27    50 1   
    53    29    51 1   
    54    29    52 1   
    55    29    53 1   
    56    31    54 1   
    57    31    55 1   
    58    32    56 1   
    59    32    57 1   
    60    33    58 1   
@<TRIPOS>SUBSTRUCTURE
     1 5W3         1 TEMP              0 ****  ****    0 ROOT
