@<TRIPOS>MOLECULE
5W3
   58    60     1     0     0
SMALL
bcc


@<TRIPOS>ATOM
      1 C1           0.0000     0.0000     0.0000 cc         1 5W3      -0.270300
      2 C2          -0.8810     0.0010    -1.1850 ca         1 5W3      -0.071800
      3 C3          -1.9850    -0.8530    -1.2380 ca         1 5W3       0.012000
      4 C4          -2.8070    -0.8490    -2.3460 ca         1 5W3      -0.236000
      5 C5          -2.5360     0.0020    -3.4090 ca         1 5W3       0.243100
      6 C6          -1.4400     0.8520    -3.3620 ca         1 5W3      -0.190500
      7 C7          -0.6170     0.8600    -2.2550 ca         1 5W3       0.053000
      8 S8          -1.1040     1.9310    -4.7140 sy         1 5W3       1.046200
      9 O9          -2.3290     2.5780    -5.0260 o          1 5W3      -0.587300
     10 O10          0.0850     2.6350    -4.3800 o          1 5W3      -0.587300
     11 N11         -0.7320     0.9790    -6.0180 n7         1 5W3      -0.574100
     12 O17         -3.3470     0.0020    -4.4990 os         1 5W3      -0.304900
     13 C18         -4.4570    -0.8980    -4.4830 c3         1 5W3       0.246700
     14 C19          1.3790     0.0000     0.0000 cd         1 5W3       0.045400
     15 C20          2.2620     0.0020    -1.2210 c3         1 5W3       0.092100
     16 N21          1.7950     0.0000     1.2620 nd         1 5W3      -0.212600
     17 N22         -0.3940     0.0070     1.3130 na         1 5W3       0.754200
     18 C23          0.7460    -0.0000     2.0740 cc         1 5W3      -0.342300
     19 N24         -1.6490     0.0130     1.9250 nc         1 5W3      -0.692800
     20 C25         -1.7630     0.0180     3.2300 cd         1 5W3       0.530300
     21 C26         -0.6310     0.0150     4.0500 cd         1 5W3      -0.440300
     22 C27          0.6290     0.0040     3.4840 cc         1 5W3       0.186600
     23 Cl          -3.3420     0.0270     3.9520 cl         1 5W3      -0.062000
     24 N29          1.7640    -0.0010     4.2860 nu         1 5W3      -0.342600
     25 C30          1.6290     0.0090     5.7460 c3         1 5W3       0.134800
     26 C31          3.0190     0.0030     6.3860 c3         1 5W3       0.043000
     27 N32          2.8840     0.0130     7.8450 ns         1 5W3      -0.206900
     28 C33          3.9860     0.0090     8.6230 c          1 5W3       0.573100
     29 C34          3.8470     0.0190    10.1230 c3         1 5W3      -0.065100
     30 O35          5.0870    -0.0010     8.1150 o          1 5W3      -0.638100
     31 C11         -1.7490     0.0930    -6.5910 c3         1 5W3       0.208800
     32 C12         -1.2920    -0.3800    -7.9730 c3         1 5W3       0.212400
     33 O1          -0.1210    -1.1860    -7.8370 oh         1 5W3      -0.596800
     34 H1          -2.1970    -1.5170    -0.4090 ha         1 5W3       0.111000
     35 H2          -3.6630    -1.5110    -2.3870 ha         1 5W3       0.126000
     36 H3           0.2380     1.5240    -2.2190 ha         1 5W3       0.139000
     37 H4           0.1760     1.0350    -6.4350 hn         1 5W3       0.357800
     38 H5          -5.0210    -0.7930    -5.4020 h1         1 5W3       0.000700
     39 H6          -5.0960    -0.6670    -3.6390 h1         1 5W3       0.000700
     40 H7          -4.0960    -1.9150    -4.3950 h1         1 5W3       0.000700
     41 H8           1.8730    -0.7000    -1.9490 hc         1 5W3       0.014700
     42 H9           2.2800     0.9960    -1.6520 hc         1 5W3       0.014700
     43 H10          3.2670    -0.2890    -0.9400 hc         1 5W3       0.014700
     44 H11         -0.7410     0.0190     5.1270 ha         1 5W3       0.144000
     45 H12          2.6720    -0.0350     3.8680 hn         1 5W3       0.318800
     46 H13          1.0940     0.9000     6.0530 h1         1 5W3       0.024200
     47 H14          1.0810    -0.8690     6.0640 h1         1 5W3       0.024200
     48 H15          3.5540    -0.8880     6.0790 h1         1 5W3       0.033700
     49 H16          3.5680     0.8810     6.0680 h1         1 5W3       0.033700
     50 H17          1.9760     0.0510     8.2630 hn         1 5W3       0.175500
     51 H18          3.2900    -0.8540    10.4400 hc         1 5W3       0.024033
     52 H19          3.3210     0.9140    10.4320 hc         1 5W3       0.024033
     53 H20          4.8310     0.0030    10.5770 hc         1 5W3       0.024033
     54 H21         -2.6850     0.6310    -6.6850 h1         1 5W3       0.029200
     55 H22         -1.8880    -0.7640    -5.9440 h1         1 5W3       0.029200
     56 H23         -1.0690     0.4800    -8.5930 h1         1 5W3      -0.009300
     57 H24         -2.0810    -0.9620    -8.4340 h1         1 5W3      -0.009300
     58 H25          0.0420    -1.6430    -8.6460 ho         1 5W3       0.392000
@<TRIPOS>BOND
     1     1     2 1   
     2     1    14 2   
     3     1    17 1   
     4     2     3 ar  
     5     2     7 ar  
     6     3     4 ar  
     7     3    34 1   
     8     4     5 ar  
     9     4    35 1   
    10     5     6 ar  
    11     5    12 1   
    12     6     7 ar  
    13     6     8 1   
    14     7    36 1   
    15     8     9 2   
    16     8    10 2   
    17     8    11 1   
    18    11    31 1   
    19    11    37 1   
    20    12    13 1   
    21    13    38 1   
    22    13    39 1   
    23    13    40 1   
    24    14    15 1   
    25    14    16 1   
    26    15    41 1   
    27    15    42 1   
    28    15    43 1   
    29    16    18 2   
    30    17    18 1   
    31    17    19 1   
    32    18    22 1   
    33    19    20 2   
    34    20    21 1   
    35    20    23 1   
    36    21    22 2   
    37    21    44 1   
    38    22    24 1   
    39    24    25 1   
    40    24    45 1   
    41    25    26 1   
    42    25    46 1   
    43    25    47 1   
    44    26    27 1   
    45    26    48 1   
    46    26    49 1   
    47    27    28 1   
    48    27    50 1   
    49    28    29 1   
    50    28    30 2   
    51    29    51 1   
    52    29    52 1   
    53    29    53 1   
    54    31    32 1   
    55    31    54 1   
    56    31    55 1   
    57    32    33 1   
    58    32    56 1   
    59    32    57 1   
    60    33    58 1   
@<TRIPOS>SUBSTRUCTURE
     1 5W3         1 TEMP              0 ****  ****    0 ROOT
