@<TRIPOS>MOLECULE
5W5
   55    57     1     0     0
SMALL
bcc


@<TRIPOS>ATOM
      1 C2           0.0000     0.0000     0.0000 c          1 5W5       0.625100
      2 C3           1.2880    -2.4280    -1.3560 c          1 5W5       0.560100
      3 C13          0.9340    -4.4550    -2.5520 ca         1 5W5      -0.042400
      4 C14         -2.0390     1.7840     2.5150 ca         1 5W5      -0.047300
      5 C15          0.4020    -4.9560    -3.7310 ca         1 5W5      -0.153000
      6 C16         -1.8340     1.0340     1.2250 c3         1 5W5       0.093300
      7 C18         -0.0550    -6.2640    -3.7820 ca         1 5W5       0.155100
      8 C22          2.3690     0.0000     0.8350 c3         1 5W5       0.046000
      9 C24          3.4100    -1.1650    -0.9900 c3         1 5W5      -0.028400
     10 C25          3.6740     0.0000     0.0000 c3         1 5W5      -0.028400
     11 C26          0.5550    -6.5690    -1.4810 ca         1 5W5      -0.031000
     12 C27         -1.9090     3.8280     3.7960 ca         1 5W5      -0.053000
     13 C28          1.0090    -5.2660    -1.4270 ca         1 5W5      -0.132000
     14 C29          0.0230    -7.0690    -2.6550 ca         1 5W5      -0.218000
     15 C30         -2.5340     1.1300     3.6240 ca         1 5W5      -0.103000
     16 N1           1.3030    -0.3220    -0.1310 n          1 5W5      -0.164800
     17 C4           1.8950    -1.0530    -1.2610 c3         1 5W5      -0.019300
     18 C5          -1.0260    -8.1130    -4.9160 c3         1 5W5       0.756700
     19 N8          -0.4200     0.6790     1.0850 ns         1 5W5      -0.194900
     20 C9          -1.7220     3.1420     2.5950 ca         1 5W5      -0.143600
     21 O10         -0.5770    -6.7580    -4.9350 os         1 5W5      -0.315900
     22 O11          0.6980    -2.8980    -0.4070 o          1 5W5      -0.611100
     23 O12         -0.7940    -0.3180    -0.8630 o          1 5W5      -0.700100
     24 O17         -1.0280     3.2500     0.3670 o          1 5W5      -0.580000
     25 F19         -2.0330    -8.2570    -3.9550 f          1 5W5      -0.198300
     26 F20         -1.5320    -8.4560    -6.1750 f          1 5W5      -0.198300
     27 F21          0.0440    -8.9550    -4.5990 f          1 5W5      -0.198300
     28 O23         -0.8840     5.1590     1.4910 os         1 5W5      -0.416900
     29 C31         -0.3660     5.7890     0.2900 c3         1 5W5       0.270700
     30 C32         -2.4060     3.1620     4.8960 ca         1 5W5      -0.116000
     31 C33         -2.7190     1.8160     4.8120 ca         1 5W5      -0.068000
     32 H1           0.3420    -4.3260    -4.6100 ha         1 5W5       0.122000
     33 H2          -2.1330     1.6600     0.3930 h1         1 5W5       0.051200
     34 H3          -2.4340     0.1320     1.2330 h1         1 5W5       0.051200
     35 H4           2.4170    -0.7580     1.6070 h1         1 5W5       0.017700
     36 H5           2.2000     0.9780     1.2680 h1         1 5W5       0.017700
     37 H6           3.6460    -2.1170    -0.5300 hc         1 5W5       0.026700
     38 H7           3.9730    -1.0230    -1.9050 hc         1 5W5       0.026700
     39 H8           4.5320    -0.2120     0.6260 hc         1 5W5       0.025700
     40 H9           3.7930     0.9370    -0.5300 hc         1 5W5       0.025700
     41 H10          0.6140    -7.1990    -0.6030 ha         1 5W5       0.106000
     42 H11         -1.6650     4.8810     3.8640 ha         1 5W5       0.118000
     43 H12          1.4250    -4.8760    -0.5050 ha         1 5W5       0.141000
     44 H13         -0.3330    -8.0920    -2.6940 ha         1 5W5       0.130000
     45 H14         -2.7810     0.0770     3.5640 ha         1 5W5       0.118000
     46 H15          1.7260    -0.5050    -2.1800 h1         1 5W5       0.042700
     47 H16          1.8240    -2.7220    -3.3040 hn         1 5W5       0.168500
     48 H17          0.2260     0.9010     1.8170 hn         1 5W5       0.166500
     49 H18         -0.1970     6.8420     0.4780 h1         1 5W5       0.001700
     50 H19          0.5680     5.3170     0.0100 h1         1 5W5       0.001700
     51 H20         -1.0830     5.6770    -0.5150 h1         1 5W5       0.001700
     52 H21         -2.5520     3.6930     5.8290 ha         1 5W5       0.108000
     53 H22         -3.1090     1.2970     5.6790 ha         1 5W5       0.105000
     54 N6           1.4000    -3.1370    -2.4980 ns         1 5W5      -0.034100
     55 C7          -1.1900     3.8490     1.4120 c          1 5W5       0.714700
@<TRIPOS>BOND
     1     1    16 1   
     2     1    19 1   
     3     1    23 2   
     4     2    17 1   
     5     2    22 2   
     6     2    54 1   
     7     3     5 ar  
     8     3    13 ar  
     9     3    54 1   
    10     4     6 1   
    11     4    15 ar  
    12     4    20 ar  
    13     5     7 ar  
    14     5    32 1   
    15     6    19 1   
    16     6    33 1   
    17     6    34 1   
    18     7    14 ar  
    19     7    21 1   
    20     8    10 1   
    21     8    16 1   
    22     8    35 1   
    23     8    36 1   
    24     9    10 1   
    25     9    17 1   
    26     9    37 1   
    27     9    38 1   
    28    10    39 1   
    29    10    40 1   
    30    11    13 ar  
    31    11    14 ar  
    32    11    41 1   
    33    12    20 ar  
    34    12    30 ar  
    35    12    42 1   
    36    13    43 1   
    37    14    44 1   
    38    15    31 ar  
    39    15    45 1   
    40    16    17 1   
    41    17    46 1   
    42    18    21 1   
    43    18    25 1   
    44    18    26 1   
    45    18    27 1   
    46    19    48 1   
    47    20    55 1   
    48    24    55 2   
    49    28    29 1   
    50    28    55 1   
    51    29    49 1   
    52    29    50 1   
    53    29    51 1   
    54    30    31 ar  
    55    30    52 1   
    56    31    53 1   
    57    47    54 1   
@<TRIPOS>SUBSTRUCTURE
     1 5W5         1 TEMP              0 ****  ****    0 ROOT
