@<TRIPOS>MOLECULE
5W6
   68    71     1     0     0
SMALL
bcc


@<TRIPOS>ATOM
      1 C1           0.0000     0.0000     0.0000 cc         1 5W6      -0.268300
      2 C2          -0.8810     0.0050    -1.1860 ca         1 5W6      -0.073800
      3 C3          -1.9920    -0.8410    -1.2370 ca         1 5W6       0.011000
      4 C4          -2.8120    -0.8330    -2.3450 ca         1 5W6      -0.238000
      5 C5          -2.5340     0.0130    -3.4110 ca         1 5W6       0.248100
      6 C6          -1.4310     0.8540    -3.3650 ca         1 5W6      -0.196500
      7 C7          -0.6100     0.8580    -2.2570 ca         1 5W6       0.048000
      8 C8           0.7070    -0.9720    -6.4090 c3         1 5W6      -0.045900
      9 C9          -0.2950    -1.4200    -7.4770 c3         1 5W6      -0.057700
     10 C10         -0.2290    -2.9410    -7.6300 c3         1 5W6       0.227400
     11 C12         -1.7790     0.5150    -6.9370 c3         1 5W6       0.236800
     12 C13         -1.7080    -1.0100    -7.0560 c3         1 5W6      -0.045900
     13 C14          0.6640     0.5530    -6.2820 c3         1 5W6       0.236800
     14 C18         -4.4620    -0.8740    -4.4830 c3         1 5W6       0.246700
     15 C19          1.3780     0.0000     0.0000 cd         1 5W6       0.042400
     16 C20          2.2630    -0.0010    -1.2210 c3         1 5W6       0.093100
     17 C23          0.7450     0.0000     2.0740 cc         1 5W6      -0.341300
     18 C25         -1.7630     0.0050     3.2290 cd         1 5W6       0.530300
     19 C26         -0.6320     0.0000     4.0490 cd         1 5W6      -0.440300
     20 S8          -1.0850     1.9260    -4.7200 sy         1 5W6       1.059200
     21 O9          -2.3050     2.5830    -5.0340 o          1 5W6      -0.585800
     22 O10          0.1080     2.6210    -4.3870 o          1 5W6      -0.585800
     23 N11         -0.7220     0.9680    -6.0210 n3         1 5W6      -0.526500
     24 O17         -3.3450     0.0170    -4.5010 os         1 5W6      -0.301900
     25 N21          1.7940     0.0000     1.2630 nd         1 5W6      -0.212600
     26 N22         -0.3940     0.0000     1.3120 na         1 5W6       0.753200
     27 N24         -1.6500     0.0050     1.9250 nc         1 5W6      -0.692800
     28 C27          0.6280     0.0020     3.4840 cc         1 5W6       0.186600
     29 Cl1         -3.3430     0.0030     3.9500 cl         1 5W6      -0.062000
     30 N29          1.7620     0.0020     4.2880 nu         1 5W6      -0.341600
     31 C30          1.6270     0.0030     5.7460 c3         1 5W6       0.134800
     32 C31          3.0170     0.0030     6.3870 c3         1 5W6       0.043000
     33 N32          2.8820     0.0040     7.8450 ns         1 5W6      -0.206900
     34 C33          3.9830     0.0030     8.6240 c          1 5W6       0.572100
     35 C34          3.8440     0.0050    10.1250 c3         1 5W6      -0.065100
     36 O35          5.0840     0.0030     8.1160 o          1 5W6      -0.638100
     37 O11         -1.0780    -3.3480    -8.7050 oh         1 5W6      -0.593800
     38 H1          -2.2090    -1.5010    -0.4060 ha         1 5W6       0.111000
     39 H2          -3.6740    -1.4880    -2.3850 ha         1 5W6       0.126000
     40 H3           0.2510     1.5150    -2.2220 ha         1 5W6       0.139000
     41 H4           1.7040    -1.2820    -6.6980 hc         1 5W6       0.021700
     42 H5           0.4450    -1.4210    -5.4580 hc         1 5W6       0.021700
     43 H6          -0.0490    -0.9460    -8.4190 hc         1 5W6       0.040700
     44 H7          -0.5590    -3.4110    -6.7120 h1         1 5W6      -0.014300
     45 H8           0.7910    -3.2390    -7.8420 h1         1 5W6      -0.014300
     46 H9          -2.7470     0.8030    -6.5440 h1         1 5W6       0.027700
     47 H10         -1.6290     0.9620    -7.9130 h1         1 5W6       0.027700
     48 H11         -1.9430    -1.4580    -6.0980 hc         1 5W6       0.021700
     49 H12         -2.4170    -1.3470    -7.8020 hc         1 5W6       0.021700
     50 H13          1.2960     0.8660    -5.4600 h1         1 5W6       0.027700
     51 H14          1.0090     1.0030    -7.2050 h1         1 5W6       0.027700
     52 H15         -5.1220    -0.6080    -3.6660 h1         1 5W6       0.001367
     53 H16         -4.1120    -1.8900    -4.3490 h1         1 5W6       0.001367
     54 H17         -4.9990    -0.7970    -5.4210 h1         1 5W6       0.001367
     55 H18          3.2810    -0.2280    -0.9280 hc         1 5W6       0.013700
     56 H19          1.9120    -0.7500    -1.9200 hc         1 5W6       0.013700
     57 H20          2.2310     0.9750    -1.6900 hc         1 5W6       0.013700
     58 H21         -0.7430     0.0000     5.1260 ha         1 5W6       0.145000
     59 H22          2.6710     0.0020     3.8690 hn         1 5W6       0.318800
     60 H23          1.0860    -0.8810     6.0590 h1         1 5W6       0.024200
     61 H24          1.0860     0.8880     6.0580 h1         1 5W6       0.024200
     62 H25          3.5590     0.8870     6.0740 h1         1 5W6       0.033700
     63 H26          3.5590    -0.8820     6.0750 h1         1 5W6       0.033700
     64 H27          1.9730    -0.0060     8.2640 hn         1 5W6       0.175500
     65 H28          4.8270     0.0110    10.5780 hc         1 5W6       0.024033
     66 H29          3.3060    -0.8820    10.4380 hc         1 5W6       0.024033
     67 H30          3.2980     0.8870    10.4360 hc         1 5W6       0.024033
     68 H31         -0.8810    -4.2390    -8.9410 ho         1 5W6       0.389000
@<TRIPOS>BOND
     1     1     2 1   
     2     1    15 2   
     3     1    26 1   
     4     2     3 ar  
     5     2     7 ar  
     6     3     4 ar  
     7     3    38 1   
     8     4     5 ar  
     9     4    39 1   
    10     5     6 ar  
    11     5    24 1   
    12     6     7 ar  
    13     6    20 1   
    14     7    40 1   
    15     8     9 1   
    16     8    13 1   
    17     8    41 1   
    18     8    42 1   
    19     9    10 1   
    20     9    12 1   
    21     9    43 1   
    22    10    37 1   
    23    10    44 1   
    24    10    45 1   
    25    11    12 1   
    26    11    23 1   
    27    11    46 1   
    28    11    47 1   
    29    12    48 1   
    30    12    49 1   
    31    13    23 1   
    32    13    50 1   
    33    13    51 1   
    34    14    24 1   
    35    14    52 1   
    36    14    53 1   
    37    14    54 1   
    38    15    16 1   
    39    15    25 1   
    40    16    55 1   
    41    16    56 1   
    42    16    57 1   
    43    17    25 2   
    44    17    26 1   
    45    17    28 1   
    46    18    19 1   
    47    18    27 2   
    48    18    29 1   
    49    19    28 2   
    50    19    58 1   
    51    20    21 2   
    52    20    22 2   
    53    20    23 1   
    54    26    27 1   
    55    28    30 1   
    56    30    31 1   
    57    30    59 1   
    58    31    32 1   
    59    31    60 1   
    60    31    61 1   
    61    32    33 1   
    62    32    62 1   
    63    32    63 1   
    64    33    34 1   
    65    33    64 1   
    66    34    35 1   
    67    34    36 2   
    68    35    65 1   
    69    35    66 1   
    70    35    67 1   
    71    37    68 1   
@<TRIPOS>SUBSTRUCTURE
     1 5W6         1 TEMP              0 ****  ****    0 ROOT
