@<TRIPOS>MOLECULE
5W7
   70    73     1     0     0
SMALL
bcc


@<TRIPOS>ATOM
      1 C18          0.0000     0.0000     0.0000 c3         1 5W7       0.240700
      2 C19          5.0460    -0.7900     5.3730 cc         1 5W7       0.039400
      3 C20          6.0240    -1.8670     4.9090 c3         1 5W7       0.116100
      4 C23          4.5290     0.4410     7.0820 cd         1 5W7      -0.326300
      5 C25          2.5690     2.3510     7.4450 cc         1 5W7       0.522300
      6 C26          3.4380     2.0530     8.4980 cc         1 5W7      -0.418300
      7 N1          -0.6520    -3.9560    -2.7920 nz         1 5W7       0.074400
      8 C2           3.3050    -0.0060     3.6800 ca         1 5W7      -0.029800
      9 C1           3.9760    -0.0080     4.9970 cd         1 5W7      -0.268300
     10 C5           2.0460    -0.0020     1.2110 ca         1 5W7       0.224100
     11 C9           0.6920    -3.6610    -2.2780 c3         1 5W7      -0.089500
     12 C8           0.5770    -2.8590    -0.9810 c3         1 5W7      -0.025400
     13 C13          1.4680    -2.8460    -3.3150 c3         1 5W7      -0.025400
     14 C12          1.9770    -2.5520    -0.4450 c3         1 5W7      -0.053400
     15 C3           1.9110     0.0000     3.6040 ca         1 5W7       0.000000
     16 C4           1.2890     0.0020     2.3750 ca         1 5W7      -0.238000
     17 C27          4.4230     1.1000     8.3290 cd         1 5W7       0.197600
     18 C6           3.4330    -0.0020     1.2810 ca         1 5W7      -0.200500
     19 C7           4.0630    -0.0040     2.5080 ca         1 5W7       0.051000
     20 C11          2.7530    -1.7370    -1.4820 c3         1 5W7       0.190500
     21 C10          2.8680    -2.5390    -2.7790 c3         1 5W7      -0.053400
     22 C31          6.2880     0.9850    11.5730 c3         1 5W7       0.061000
     23 C30          5.2360     1.5260    10.6100 c3         1 5W7       0.128800
     24 C33          7.1110     1.3700    13.9140 c          1 5W7       0.614100
     25 C34          7.0230     2.1220    15.2380 c3         1 5W7      -0.060100
     26 S8           4.3890    -0.0070    -0.1990 sy         1 5W7       1.049200
     27 O9           3.8480     1.0120    -1.0290 o          1 5W7      -0.564800
     28 O10          5.7510    -0.0400     0.2030 o          1 5W7      -0.564800
     29 N11          4.0930    -1.4430    -0.9690 n7         1 5W7      -0.572100
     30 O17          1.4300     0.0000     0.0000 os         1 5W7      -0.318900
     31 N21          5.3540    -0.4960     6.6330 nc         1 5W7      -0.244600
     32 N22          3.6540     0.7680     6.0800 na         1 5W7       0.757200
     33 N24          2.6720     1.7380     6.2930 nd         1 5W7      -0.726800
     34 N29          5.3100     0.8020     9.3570 nu         1 5W7      -0.319600
     35 N32          6.2070     1.7020    12.8300 ns         1 5W7      -0.298900
     36 O35          7.9160     0.5140    13.7710 o          1 5W7      -0.588100
     37 H1          -0.3620    -0.8850     0.5090 h1         1 5W7       0.000033
     38 H2          -0.3600     0.0020    -1.0220 h1         1 5W7       0.000033
     39 H3          -0.3610     0.8840     0.5120 h1         1 5W7       0.000033
     40 H4           5.5010    -2.5890     4.2940 hc         1 5W7       0.010700
     41 H5           6.4470    -2.3670     5.7720 hc         1 5W7       0.010700
     42 H6           6.8190    -1.4090     4.3330 hc         1 5W7       0.010700
     43 H7           3.0970     2.6460     9.3380 ha         1 5W7       0.153000
     44 H8          -1.1810    -4.4340    -2.0900 hn         1 5W7       0.223467
     45 H9          -1.1130    -3.1010    -3.0330 hn         1 5W7       0.223467
     46 H11          1.2190    -4.5870    -2.0820 hx         1 5W7       0.094700
     47 H12         -0.0410    -1.9850    -1.1480 hc         1 5W7       0.032200
     48 H13          0.1370    -3.4790    -0.2090 hc         1 5W7       0.032200
     49 H14          1.6350    -3.4750    -4.1820 hc         1 5W7       0.032200
     50 H15          0.8520    -2.0060    -3.6130 hc         1 5W7       0.032200
     51 H16          2.4730    -3.4850    -0.2060 hc         1 5W7       0.049700
     52 H17          1.8850    -1.9570     0.4550 hc         1 5W7       0.049700
     53 H18          1.3190     0.0230     4.5120 ha         1 5W7       0.122000
     54 H19          0.2120     0.0490     2.4810 ha         1 5W7       0.128000
     55 H20          5.0910     0.3370     2.4910 ha         1 5W7       0.146000
     56 H21          2.2250    -0.8110    -1.6780 h1         1 5W7       0.081700
     57 H22          3.3540    -1.8190    -3.4260 hc         1 5W7       0.049700
     58 H23          3.4490    -3.4530    -2.7420 hc         1 5W7       0.049700
     59 H24          7.2740     1.1210    11.1430 h1         1 5W7       0.023200
     60 H25          6.1120    -0.0690    11.7460 h1         1 5W7       0.023200
     61 H26          4.2510     1.3990    11.0430 h1         1 5W7       0.026200
     62 H27          5.4180     2.5790    10.4300 h1         1 5W7       0.026200
     63 H28          7.2580     1.4480    16.0530 hc         1 5W7       0.024700
     64 H29          6.0200     2.5100    15.3680 hc         1 5W7       0.024700
     65 H30          7.7300     2.9430    15.2350 hc         1 5W7       0.024700
     66 H31          4.8140    -2.1350    -1.0250 hn         1 5W7       0.351800
     67 H32          5.9900     0.0780     9.2370 hn         1 5W7       0.317800
     68 H33          5.5350     2.4340    12.9460 hn         1 5W7       0.182500
     69 H131        -0.5770    -4.4620    -3.6520 hn         1 5W7       0.223467
     70 Cl1          1.1560     3.4410     7.4240 cl         1 5W7      -0.060000
@<TRIPOS>BOND
     1     1    30 1   
     2     1    37 1   
     3     1    38 1   
     4     1    39 1   
     5     2     3 1   
     6     2     9 2   
     7     2    31 1   
     8     3    40 1   
     9     3    41 1   
    10     3    42 1   
    11     4    17 1   
    12     4    31 2   
    13     4    32 1   
    14     5     6 1   
    15     5    33 2   
    16     5    70 1   
    17     6    17 2   
    18     6    43 1   
    19     7    11 1   
    20     7    44 1   
    21     7    45 1   
    22     7    69 1   
    23     8     9 1   
    24     8    15 ar  
    25     8    19 ar  
    26     9    32 1   
    27    10    16 ar  
    28    10    18 ar  
    29    10    30 1   
    30    11    12 1   
    31    11    13 1   
    32    11    46 1   
    33    12    14 1   
    34    12    47 1   
    35    12    48 1   
    36    13    21 1   
    37    13    49 1   
    38    13    50 1   
    39    14    20 1   
    40    14    51 1   
    41    14    52 1   
    42    15    16 ar  
    43    15    53 1   
    44    16    54 1   
    45    17    34 1   
    46    18    19 ar  
    47    18    26 1   
    48    19    55 1   
    49    20    21 1   
    50    20    29 1   
    51    20    56 1   
    52    21    57 1   
    53    21    58 1   
    54    22    23 1   
    55    22    35 1   
    56    22    59 1   
    57    22    60 1   
    58    23    34 1   
    59    23    61 1   
    60    23    62 1   
    61    24    25 1   
    62    24    35 1   
    63    24    36 2   
    64    25    63 1   
    65    25    64 1   
    66    25    65 1   
    67    26    27 2   
    68    26    28 2   
    69    26    29 1   
    70    29    66 1   
    71    32    33 1   
    72    34    67 1   
    73    35    68 1   
@<TRIPOS>SUBSTRUCTURE
     1 5W7         1 TEMP              0 ****  ****    0 ROOT
