@<TRIPOS>MOLECULE
5W8
   64    66     1     0     0
SMALL
bcc


@<TRIPOS>ATOM
      1 C10          0.0000     0.0000     0.0000 c3         1 5W8       0.000900
      2 C19          0.8710     3.8360     5.9730 cc         1 5W8       0.043400
      3 C23          0.7590     4.4210     8.0580 cd         1 5W8      -0.340300
      4 C1           1.3440     2.7750     6.7150 cd         1 5W8      -0.269300
      5 C2           1.8360     1.4820     6.1930 ca         1 5W8      -0.073800
      6 C3           3.0100     0.9230     6.7000 ca         1 5W8       0.012000
      7 C4           3.4650    -0.2820     6.2100 ca         1 5W8      -0.240000
      8 C5           2.7570    -0.9400     5.2130 ca         1 5W8       0.249100
      9 C6           1.5880    -0.3880     4.7070 ca         1 5W8      -0.198500
     10 C7           1.1230     0.8150     5.1950 ca         1 5W8       0.047000
     11 C8           2.0390     0.0000     1.4430 c3         1 5W8       0.196500
     12 C9           1.5300     0.0000     0.0000 c3         1 5W8      -0.041400
     13 C11          3.5640     0.1340     1.4450 c3         1 5W8       0.204400
     14 C18          4.3520    -2.6970     5.3760 c3         1 5W8       0.251700
     15 O9           0.5660    -2.5780     3.8700 o          1 5W8      -0.585300
     16 O10         -0.4190    -0.4060     3.1230 o          1 5W8      -0.585300
     17 N11          1.6580    -1.2550     2.0960 n7         1 5W8      -0.562100
     18 N21          0.5280     4.8090     6.8110 nc         1 5W8      -0.211600
     19 N22          1.2710     3.1510     8.0320 na         1 5W8       0.752200
     20 N24          1.6050     2.5010     9.2230 nc         1 5W8      -0.691800
     21 C25          1.4390     3.0890    10.3800 cd         1 5W8       0.530300
     22 C26          0.9190     4.3850    10.4600 cc         1 5W8      -0.439300
     23 C27          0.5770     5.0610     9.3070 cd         1 5W8       0.186600
     24 Cl1          1.8670     2.2470    11.8360 cl         1 5W8      -0.061000
     25 N29          0.0590     6.3500     9.3710 nu         1 5W8      -0.342600
     26 C30         -0.1250     7.0020    10.6710 c3         1 5W8       0.134800
     27 C31         -0.7040     8.4030    10.4610 c3         1 5W8       0.043000
     28 N32         -0.8880     9.0540    11.7600 ns         1 5W8      -0.205900
     29 C33         -1.3890    10.3040    11.8220 c          1 5W8       0.572100
     30 C34         -1.5790    10.9740    13.1580 c3         1 5W8      -0.065100
     31 O35         -1.6860    10.8890    10.8020 o          1 5W8      -0.638100
     32 O12          4.1340    -0.8990     0.6400 oh         1 5W8      -0.590800
     33 H1          -0.3610     0.8000     0.6350 hc         1 5W8       0.007700
     34 H2          -0.3610    -0.9500     0.3750 hc         1 5W8       0.007700
     35 H3          -0.3610     0.1500    -1.0100 hc         1 5W8       0.007700
     36 H4           3.5630     1.4360     7.4780 ha         1 5W8       0.112000
     37 H5           4.3770    -0.7160     6.6030 ha         1 5W8       0.126000
     38 H6           0.2110     1.2450     4.7990 ha         1 5W8       0.140000
     39 H7           1.6030     0.8340     1.9800 h1         1 5W8       0.039700
     40 H8           1.8910     0.8850    -0.5110 hc         1 5W8       0.022200
     41 H9           1.8910    -0.8840    -0.5110 hc         1 5W8       0.022200
     42 H10          3.9330     0.0450     2.4600 h1         1 5W8      -0.010800
     43 H11          3.8420     1.1000     1.0430 h1         1 5W8      -0.010800
     44 H12          4.5860    -3.6500     4.9200 h1         1 5W8      -0.000300
     45 H13          5.2000    -2.0300     5.2750 h1         1 5W8      -0.000300
     46 H14          4.1310    -2.8440     6.4270 h1         1 5W8      -0.000300
     47 H15          0.6000     4.9060     4.1530 hc         1 5W8       0.013367
     48 H16         -0.0810     3.2730     4.1540 hc         1 5W8       0.013367
     49 H17          1.6690     3.5020     4.0280 hc         1 5W8       0.013367
     50 H18          1.9480    -2.1300     1.7050 hn         1 5W8       0.362800
     51 H19          0.7870     4.8570    11.4260 ha         1 5W8       0.145000
     52 H20         -0.1880     6.8330     8.5300 hn         1 5W8       0.318800
     53 H21          0.8310     7.0780    11.1750 h1         1 5W8       0.024200
     54 H22         -0.8070     6.4160    11.2750 h1         1 5W8       0.024200
     55 H23         -1.6590     8.3270     9.9560 h1         1 5W8       0.033700
     56 H24         -0.0220     8.9890     9.8570 h1         1 5W8       0.033700
     57 H25         -0.6350     8.5740    12.6000 hn         1 5W8       0.175500
     58 H26         -2.2030    10.3510    13.7890 hc         1 5W8       0.024033
     59 H27         -0.6150    11.1150    13.6320 hc         1 5W8       0.024033
     60 H28         -2.0560    11.9360    13.0160 hc         1 5W8       0.024033
     61 H29          5.0710    -0.7980     0.6150 ho         1 5W8       0.390000
     62 S8           0.6950    -1.2280     3.4420 sy         1 5W8       1.042200
     63 O17          3.2090    -2.1290     4.7330 os         1 5W8      -0.297900
     64 C20          0.7570     3.8820     4.4720 c3         1 5W8       0.093100
@<TRIPOS>BOND
     1     1    12 1   
     2     1    33 1   
     3     1    34 1   
     4     1    35 1   
     5     2     4 2   
     6     2    18 1   
     7     2    64 1   
     8     3    18 2   
     9     3    19 1   
    10     3    23 1   
    11     4     5 1   
    12     4    19 1   
    13     5     6 ar  
    14     5    10 ar  
    15     6     7 ar  
    16     6    36 1   
    17     7     8 ar  
    18     7    37 1   
    19     8     9 ar  
    20     8    63 1   
    21     9    10 ar  
    22     9    62 1   
    23    10    38 1   
    24    11    12 1   
    25    11    13 1   
    26    11    17 1   
    27    11    39 1   
    28    12    40 1   
    29    12    41 1   
    30    13    32 1   
    31    13    42 1   
    32    13    43 1   
    33    14    44 1   
    34    14    45 1   
    35    14    46 1   
    36    14    63 1   
    37    15    62 2   
    38    16    62 2   
    39    17    50 1   
    40    17    62 1   
    41    19    20 1   
    42    20    21 2   
    43    21    22 1   
    44    21    24 1   
    45    22    23 2   
    46    22    51 1   
    47    23    25 1   
    48    25    26 1   
    49    25    52 1   
    50    26    27 1   
    51    26    53 1   
    52    26    54 1   
    53    27    28 1   
    54    27    55 1   
    55    27    56 1   
    56    28    29 1   
    57    28    57 1   
    58    29    30 1   
    59    29    31 2   
    60    30    58 1   
    61    30    59 1   
    62    30    60 1   
    63    32    61 1   
    64    47    64 1   
    65    48    64 1   
    66    49    64 1   
@<TRIPOS>SUBSTRUCTURE
     1 5W8         1 TEMP              0 ****  ****    0 ROOT
