@<TRIPOS>MOLECULE
molecule
   64    66     1     0     0
SMALL
bcc


@<TRIPOS>ATOM
      1 C10          0.0000     0.0000     0.0000 c3         1 5W8      -0.091100
      2 C19          0.8710     3.8360     5.9730 cc         1 5W8       0.070400
      3 C23          0.7590     4.4210     8.0580 cd         1 5W8      -0.120300
      4 C1           1.3440     2.7750     6.7150 cd         1 5W8      -0.064300
      5 C2           1.8360     1.4820     6.1930 ca         1 5W8      -0.082800
      6 C3           3.0100     0.9230     6.7000 ca         1 5W8      -0.010000
      7 C4           3.4650    -0.2820     6.2100 ca         1 5W8      -0.245000
      8 C5           2.7570    -0.9400     5.2130 ca         1 5W8       0.238100
      9 C6           1.5880    -0.3880     4.7070 ca         1 5W8      -0.346500
     10 C7           1.1230     0.8150     5.1950 ca         1 5W8       0.019000
     11 C8           2.0390     0.0000     1.4430 c3         1 5W8       0.253500
     12 C9           1.5300     0.0000     0.0000 c3         1 5W8      -0.090400
     13 C11          3.5640     0.1340     1.4450 c3         1 5W8       0.125400
     14 C18          4.3520    -2.6970     5.3760 c3         1 5W8       0.132700
     15 O9           0.5660    -2.5780     3.8700 o          1 5W8      -0.634800
     16 O10         -0.4190    -0.4060     3.1230 o          1 5W8      -0.634800
     17 N11          1.6580    -1.2550     2.0960 n7         1 5W8      -0.900100
     18 N21          0.5280     4.8090     6.8110 nc         1 5W8      -0.289600
     19 N22          1.2710     3.1510     8.0320 na         1 5W8       0.227200
     20 N24          1.6050     2.5010     9.2230 nd         1 5W8      -0.534800
     21 C25          1.4390     3.0890    10.3800 cc         1 5W8       0.553300
     22 C26          0.9190     4.3850    10.4600 cc         1 5W8      -0.410300
     23 C27          0.5770     5.0610     9.3070 cd         1 5W8       0.312600
     24 Cl1          1.8670     2.2470    11.8360 cl         1 5W8      -0.123000
     25 N29          0.0590     6.3500     9.3710 nu         1 5W8      -0.778600
     26 C30         -0.1250     7.0020    10.6710 c3         1 5W8       0.210800
     27 C31         -0.7040     8.4030    10.4610 c3         1 5W8       0.098000
     28 N32         -0.8880     9.0540    11.7600 ns         1 5W8      -0.592900
     29 C33         -1.3890    10.3040    11.8220 c          1 5W8       0.659100
     30 C34         -1.5790    10.9740    13.1580 c3         1 5W8      -0.170100
     31 O35         -1.6860    10.8890    10.8020 o          1 5W8      -0.600100
     32 O12          4.1340    -0.8990     0.6400 oh         1 5W8      -0.607800
     33 H1          -0.3610     0.8000     0.6350 hc         1 5W8       0.039033
     34 H2          -0.3610    -0.9500     0.3750 hc         1 5W8       0.039033
     35 H3          -0.3610     0.1500    -1.0100 hc         1 5W8       0.039033
     36 H4           3.5630     1.4360     7.4780 ha         1 5W8       0.149000
     37 H5           4.3770    -0.7160     6.6030 ha         1 5W8       0.143000
     38 H6           0.2110     1.2450     4.7990 ha         1 5W8       0.167000
     39 H7           1.6030     0.8340     1.9800 h1         1 5W8       0.066700
     40 H8           1.8910     0.8850    -0.5110 hc         1 5W8       0.052700
     41 H9           1.8910    -0.8840    -0.5110 hc         1 5W8       0.052700
     42 H10          3.9330     0.0450     2.4600 h1         1 5W8       0.025700
     43 H11          3.8420     1.1000     1.0430 h1         1 5W8       0.025700
     44 H12          4.5860    -3.6500     4.9200 h1         1 5W8       0.047367
     45 H13          5.2000    -2.0300     5.2750 h1         1 5W8       0.047367
     46 H14          4.1310    -2.8440     6.4270 h1         1 5W8       0.047367
     47 H15          0.6000     4.9060     4.1530 hc         1 5W8       0.053033
     48 H16         -0.0810     3.2730     4.1540 hc         1 5W8       0.053033
     49 H17          1.6690     3.5020     4.0280 hc         1 5W8       0.053033
     50 H18          1.9480    -2.1300     1.7050 hn         1 5W8       0.468800
     51 H19          0.7870     4.8570    11.4260 ha         1 5W8       0.157000
     52 H20         -0.1880     6.8330     8.5300 hn         1 5W8       0.469800
     53 H21          0.8310     7.0780    11.1750 h1         1 5W8       0.050700
     54 H22         -0.8070     6.4160    11.2750 h1         1 5W8       0.050700
     55 H23         -1.6590     8.3270     9.9560 h1         1 5W8       0.063700
     56 H24         -0.0220     8.9890     9.8570 h1         1 5W8       0.063700
     57 H25         -0.6350     8.5740    12.6000 hn         1 5W8       0.313500
     58 H26         -2.2030    10.3510    13.7890 hc         1 5W8       0.062700
     59 H27         -0.6150    11.1150    13.6320 hc         1 5W8       0.062700
     60 H28         -2.0560    11.9360    13.0160 hc         1 5W8       0.062700
     61 H29          5.0710    -0.7980     0.6150 ho         1 5W8       0.403000
     62 S8           0.6950    -1.2280     3.4420 sy         1 5W8       1.431200
     63 O17          3.2090    -2.1290     4.7330 os         1 5W8      -0.318900
     64 C20          0.7570     3.8820     4.4720 c3         1 5W8      -0.010900
@<TRIPOS>BOND
     1    64     2 1
     2     7     6 ar
     3     7     8 ar
     4     6     5 ar
     5     2    18 1
     6     2     4 2
     7    63    14 1
     8    63     8 1
     9     8     9 ar
    10    18     3 2
    11     5     4 1
    12     5    10 ar
    13     4    19 1
    14    12     1 1
    15    12    11 1
    16    32    13 1
    17     9    10 ar
    18     9    62 1
    19    13    11 1
    20     3    19 1
    21     3    23 1
    22    19    20 1
    23    11    17 1
    24    17    62 1
    25    62    15 2
    26    62    16 2
    27    25    23 1
    28    25    26 1
    29    23    22 2
    30    20    21 2
    31    26    27 1
    32    22    21 1
    33    21    24 1
    34    27    28 1
    35    28    29 1
    36    29    30 1
    37    29    31 2
    38     1    33 1
    39     1    34 1
    40     1    35 1
    41     6    36 1
    42     7    37 1
    43    10    38 1
    44    11    39 1
    45    12    40 1
    46    12    41 1
    47    13    42 1
    48    13    43 1
    49    14    44 1
    50    14    45 1
    51    14    46 1
    52    64    47 1
    53    64    48 1
    54    64    49 1
    55    17    50 1
    56    22    51 1
    57    25    52 1
    58    26    53 1
    59    26    54 1
    60    27    55 1
    61    27    56 1
    62    28    57 1
    63    30    58 1
    64    30    59 1
    65    30    60 1
    66    32    61 1
@<TRIPOS>SUBSTRUCTURE
     1 5W8         1 TEMP              0 ****  ****    0 ROOT
