@<TRIPOS>MOLECULE
molecule
   62    65     1     0     0
SMALL
bcc


@<TRIPOS>ATOM
      1 C1           0.0000     0.0000     0.0000 cc         1 5W9      -0.064300
      2 C3          -1.9850    -0.8550    -1.2360 ca         1 5W9      -0.010000
      3 C4          -2.8070    -0.8510    -2.3440 ca         1 5W9      -0.242000
      4 C5          -2.5340    -0.0050    -3.4100 ca         1 5W9       0.237100
      5 C6          -1.4350     0.8430    -3.3650 ca         1 5W9      -0.342500
      6 O10          0.0940     2.6180    -4.3890 o          1 5W9      -0.633800
      7 N11         -0.7290     0.9600    -6.0230 n3         1 5W9      -0.817500
      8 C12         -1.7790     0.4970    -6.9430 c3         1 5W9       0.199800
      9 C13         -1.3390     0.8140    -8.3770 c3         1 5W9       0.125900
     10 C14          0.6590     0.5530    -6.2950 c3         1 5W9       0.199800
     11 C15          0.9780     0.8730    -7.7610 c3         1 5W9       0.125900
     12 C18         -4.4590    -0.9010    -4.4810 c3         1 5W9       0.130700
     13 C20          2.2620     0.0010    -1.2210 c3         1 5W9      -0.010900
     14 C23          0.7460    -0.0000     2.0730 cd         1 5W9      -0.120300
     15 N24         -1.6490     0.0070     1.9270 nd         1 5W9      -0.534800
     16 C26         -0.6300    -0.0030     4.0510 cc         1 5W9      -0.410300
     17 C30          1.6300    -0.0160     5.7450 c3         1 5W9       0.210800
     18 C31          3.0210    -0.0210     6.3850 c3         1 5W9       0.098000
     19 C33          3.9870    -0.0380     8.6220 c          1 5W9       0.658100
     20 C34          3.8490    -0.0490    10.1230 c3         1 5W9      -0.170100
     21 C2          -0.8830    -0.0000    -1.1860 ca         1 5W9      -0.079800
     22 C7          -0.6100     0.8460    -2.2610 ca         1 5W9       0.021000
     23 O9          -2.3200     2.5660    -5.0350 o          1 5W9      -0.633800
     24 O16         -0.0280     0.2880    -8.5940 os         1 5W9      -0.420600
     25 O17         -3.3460    -0.0050    -4.5010 os         1 5W9      -0.328900
     26 C19          1.3780     0.0000     0.0000 cd         1 5W9       0.070400
     27 N21          1.7950     0.0000     1.2620 nc         1 5W9      -0.289600
     28 N22         -0.3930     0.0050     1.3130 na         1 5W9       0.227200
     29 C25         -1.7620     0.0030     3.2300 cc         1 5W9       0.553300
     30 C27          0.6290     0.0010     3.4840 cd         1 5W9       0.312600
     31 Cl1         -3.3410    -0.0020     3.9520 cl         1 5W9      -0.123000
     32 N29          1.7650    -0.0050     4.2870 nu         1 5W9      -0.778600
     33 N32          2.8860    -0.0320     7.8440 ns         1 5W9      -0.592900
     34 O35          5.0890    -0.0350     8.1140 o          1 5W9      -0.601100
     35 H1          -2.1980    -1.5150    -0.4040 ha         1 5W9       0.149000
     36 H2          -3.6650    -1.5120    -2.3840 ha         1 5W9       0.143000
     37 H3          -1.9140    -0.5720    -6.8330 h1         1 5W9       0.064450
     38 H4          -2.7070     1.0120    -6.7250 h1         1 5W9       0.064450
     39 H5          -2.0300     0.3590    -9.0760 h1         1 5W9       0.055200
     40 H6          -1.3250     1.8880    -8.5210 h1         1 5W9       0.055200
     41 H7           1.3330     1.1020    -5.6480 h1         1 5W9       0.064450
     42 H8           0.7660    -0.5110    -6.1240 h1         1 5W9       0.064450
     43 H9           0.9850     1.9470    -7.9030 h1         1 5W9       0.055200
     44 H10          1.9460     0.4610    -8.0190 h1         1 5W9       0.055200
     45 H11         -4.1000    -1.9200    -4.4090 h1         1 5W9       0.048033
     46 H12         -5.0870    -0.6780    -3.6260 h1         1 5W9       0.048033
     47 H13         -5.0340    -0.7830    -5.3910 h1         1 5W9       0.048033
     48 H14          3.2660    -0.2920    -0.9410 hc         1 5W9       0.053367
     49 H15          2.2820     0.9950    -1.6510 hc         1 5W9       0.053367
     50 H16          1.8720    -0.6990    -1.9500 hc         1 5W9       0.053367
     51 H17         -0.7400    -0.0060     5.1280 ha         1 5W9       0.157000
     52 H18          1.0890    -0.9030     6.0510 h1         1 5W9       0.050700
     53 H19          1.0890     0.8660     6.0640 h1         1 5W9       0.050700
     54 H20          3.5630     0.8650     6.0780 h1         1 5W9       0.063700
     55 H21          3.5620    -0.9040     6.0660 h1         1 5W9       0.063700
     56 H22          3.3180    -0.9420    10.4300 hc         1 5W9       0.063033
     57 H23          3.2970     0.8270    10.4410 hc         1 5W9       0.063033
     58 H24          4.8330    -0.0390    10.5760 hc         1 5W9       0.063033
     59 H25          0.2470     1.5070    -2.2260 ha         1 5W9       0.166000
     60 H26          2.6740     0.0200     3.8680 hn         1 5W9       0.470800
     61 H27          1.9780    -0.0600     8.2630 hn         1 5W9       0.313500
     62 S8          -1.0960     1.9160    -4.7210 sy         1 5W9       1.436200
@<TRIPOS>BOND
     1    20    19 1   
     2    31    29 1   
     3    19    34 2   
     4    19    33 1   
     5    33    18 1   
     6    11    24 1   
     7    11    10 1   
     8    16    29 1   
     9    16    30 2   
    10    24     9 1   
    11    17    18 1   
    12    17    32 1   
    13    29    15 2   
    14    10     7 1   
    15     9     8 1   
    16    32    30 1   
    17    30    14 1   
    18     7     8 1   
    19     7    62 1   
    20    15    28 1   
    21     6    62 2   
    22    62    23 2   
    23    62     5 1   
    24    28    14 1   
    25    28     1 1   
    26    14    27 2   
    27    22     5 ar  
    28    22    21 ar  
    29     5     4 ar  
    30     1    21 1   
    31     1    26 2   
    32    27    26 1   
    33    21     2 ar  
    34     4    25 1   
    35     4     3 ar  
    36    26    13 1   
    37    25    12 1   
    38     2     3 ar  
    39     2    35 1   
    40     3    36 1   
    41     8    37 1   
    42     8    38 1   
    43     9    39 1   
    44     9    40 1   
    45    10    41 1   
    46    10    42 1   
    47    11    43 1   
    48    11    44 1   
    49    12    45 1   
    50    12    46 1   
    51    12    47 1   
    52    13    48 1   
    53    13    49 1   
    54    13    50 1   
    55    16    51 1   
    56    17    52 1   
    57    17    53 1   
    58    18    54 1   
    59    18    55 1   
    60    20    56 1   
    61    20    57 1   
    62    20    58 1   
    63    22    59 1   
    64    32    60 1   
    65    33    61 1   
@<TRIPOS>SUBSTRUCTURE
     1 5W9         1 TEMP              0 ****  ****    0 ROOT
