@<TRIPOS>MOLECULE
5WA
   45    46     1     0     0
SMALL
bcc


@<TRIPOS>ATOM
      1 N1           0.0000     0.0000     0.0000 nb         1 5WA      -0.681000
      2 C2           1.3260     0.0000     0.0000 ca         1 5WA       0.724900
      3 N3           2.0280     0.0000     1.1230 nb         1 5WA      -0.698000
      4 C4           1.4210    -0.0020     2.3040 ca         1 5WA       0.576200
      5 C5           0.0120    -0.0020     2.3440 ca         1 5WA      -0.259600
      6 C6          -0.6830    -0.0010     1.1340 ca         1 5WA       0.470600
      7 C1A         -5.8120     3.3080     4.4440 c3         1 5WA       0.248200
      8 C1B         -5.2460    -3.6490     3.8390 c3         1 5WA       0.248200
      9 C1C         -7.3370     0.1540     1.5480 c3         1 5WA       0.239700
     10 C1D         -2.1890    -0.0010     1.1180 c3         1 5WA      -0.050400
     11 N1E          1.9950     0.0010    -1.2100 nv         1 5WA      -0.547500
     12 N1F          2.1580    -0.0030     3.4740 nv         1 5WA      -0.626500
     13 O1G         -2.0680    -0.9800     6.3760 oh         1 5WA      -0.599800
     14 C1H         -0.6880    -0.0030     3.5930 cg         1 5WA      -0.054000
     15 C1I         -1.2450    -0.0000     4.6260 c1         1 5WA      -0.162100
     16 C1J         -4.3980     0.9390     4.6960 ca         1 5WA      -0.149000
     17 C1K         -4.2650    -1.1440     4.7760 ca         1 5WA      -0.149000
     18 C1U         -3.9680    -0.0790     5.0220 ca         1 5WA      -0.001300
     19 C1V         -5.7820     0.9460     4.3450 ca         1 5WA       0.046600
     20 C1W         -5.3440    -1.3410     3.9250 ca         1 5WA       0.046600
     21 C1X         -6.1080    -0.3180     3.3360 ca         1 5WA       0.150100
     22 C1Y         -2.3530     0.1360     5.5240 c3         1 5WA       0.311500
     23 H1A         -4.9700     3.2550     3.7650 h1         1 5WA      -0.016800
     24 H1AA        -5.4560     3.2610     5.4660 h1         1 5WA      -0.016800
     25 H1AB        -6.3420     4.2410     4.2900 h1         1 5WA      -0.016800
     26 H1B         -5.2230    -3.7090     4.9200 h1         1 5WA      -0.016800
     27 H1BA        -4.2510    -3.4380     3.4670 h1         1 5WA      -0.016800
     28 H1BB        -5.5920    -4.5910     3.4320 h1         1 5WA      -0.016800
     29 H1C         -6.3700     0.3450     1.0980 h1         1 5WA       0.003700
     30 H1CA        -7.8410    -0.6320     0.9980 h1         1 5WA       0.003700
     31 H1CB        -7.9340     1.0570     1.5160 h1         1 5WA       0.003700
     32 H1D         -2.5390     0.0440     0.0930 hc         1 5WA       0.021033
     33 H1DA        -2.5550    -0.9080     1.5840 hc         1 5WA       0.021033
     34 H1DB        -2.5560     0.8590     1.6630 hc         1 5WA       0.021033
     35 HN1E         1.7040    -0.6130    -1.9450 hn         1 5WA       0.275800
     36 HN1A         2.7710     0.6170    -1.3520 hn         1 5WA       0.275800
     37 HN1F         2.6860     0.8070     3.7320 hn         1 5WA       0.280300
     38 HN1B         2.2210    -0.8370     4.0240 hn         1 5WA       0.280300
     39 HO1G        -1.6120    -0.6800     7.1450 ho         1 5WA       0.391000
     40 H1J         -3.9400     1.8500     5.0620 ha         1 5WA       0.135500
     41 H1K         -3.7160    -1.9770     5.1990 ha         1 5WA       0.135500
     42 H1Y         -2.2620     1.0580     6.0850 h1         1 5WA       0.006700
     43 O1N         -6.5500     2.3030     4.2780 os         1 5WA      -0.314900
     44 O1O         -6.0480    -2.6030     3.4570 os         1 5WA      -0.314900
     45 O1P         -7.1530    -0.4290     2.8590 os         1 5WA      -0.209900
@<TRIPOS>BOND
     1     1     2 ar  
     2     1     6 ar  
     3     2     3 ar  
     4     2    11 1   
     5     3     4 ar  
     6     4     5 ar  
     7     4    12 1   
     8     5     6 ar  
     9     5    14 1   
    10     6    10 1   
    11     7    23 1   
    12     7    24 1   
    13     7    25 1   
    14     7    43 1   
    15     8    26 1   
    16     8    27 1   
    17     8    28 1   
    18     8    44 1   
    19     9    29 1   
    20     9    30 1   
    21     9    31 1   
    22     9    45 1   
    23    10    32 1   
    24    10    33 1   
    25    10    34 1   
    26    11    35 1   
    27    11    36 1   
    28    12    37 1   
    29    12    38 1   
    30    13    22 1   
    31    13    39 1   
    32    14    15 3   
    33    15    22 1   
    34    16    18 ar  
    35    16    19 ar  
    36    16    40 1   
    37    17    18 ar  
    38    17    20 ar  
    39    17    41 1   
    40    18    22 1   
    41    19    21 ar  
    42    19    43 1   
    43    20    21 ar  
    44    20    44 1   
    45    21    45 1   
    46    22    42 1   
@<TRIPOS>SUBSTRUCTURE
     1 5WA         1 TEMP              0 ****  ****    0 ROOT
