@<TRIPOS>MOLECULE
molecule
   48    49     1     0     0
SMALL
bcc


@<TRIPOS>ATOM
      1 N1           0.0000     0.0000     0.0000 nb         1 5WB      -0.783000
      2 C2           1.3250     0.0000     0.0000 ca         1 5WB       1.022900
      3 N3           2.0280     0.0000     1.1240 nb         1 5WB      -0.819000
      4 C4           1.4180     0.0010     2.3040 ca         1 5WB       0.705200
      5 C5           0.0100    -0.0000     2.3430 ca         1 5WB      -0.280600
      6 C6          -0.6830    -0.0010     1.1320 ca         1 5WB       0.514600
      7 C1A         -6.6260    -2.0580     6.6330 c3         1 5WB       0.143200
      8 C1B         -4.5060     4.4210     4.5270 c3         1 5WB       0.143200
      9 C1C         -8.2300     2.1450     5.3630 c3         1 5WB       0.192700
     10 C1E         -2.1900    -0.0000     1.1150 c3         1 5WB      -0.150400
     11 N1F          1.9960    -0.0000    -1.2100 nv         1 5WB      -1.073500
     12 N1G          2.1560    -0.0000     3.4750 nv         1 5WB      -0.984500
     13 C1H         -0.6910     0.0000     3.5920 cg         1 5WB      -0.059000
     14 C1I         -1.2830    -0.0050     4.6060 c1         1 5WB      -0.153100
     15 C1J         -4.3210    -0.6150     5.9330 ca         1 5WB      -0.140500
     16 C1K         -3.9490     1.7250     5.1990 ca         1 5WB      -0.140500
     17 O1Q         -1.3740     1.2470     6.7900 os         1 5WB      -0.343600
     18 C1U         -3.2610     0.5460     5.7060 ca         1 5WB      -0.097300
     19 C1W         -5.7010    -0.1170     5.5480 ca         1 5WB       0.012600
     20 C1X         -5.1580     2.1840     4.8540 ca         1 5WB       0.012600
     21 C1Y         -6.2080     1.1640     5.0350 ca         1 5WB       0.230100
     22 C1Z         -1.8330     0.3540     5.9200 c3         1 5WB       0.309500
     23 H1A         -5.5550    -2.1270     6.7820 h1         1 5WB       0.029533
     24 H1AA        -6.8870    -3.0850     6.8610 h1         1 5WB       0.029533
     25 H1AB        -6.7070    -1.6260     7.6230 h1         1 5WB       0.029533
     26 H1B         -5.0910     5.3000     4.2820 h1         1 5WB       0.029533
     27 H1BA        -4.4100     4.3470     5.6030 h1         1 5WB       0.029533
     28 H1BB        -3.7290     4.1650     3.8170 h1         1 5WB       0.029533
     29 H1C         -7.5540     2.7680     5.9360 h1         1 5WB       0.046367
     30 H1CA        -8.8190     2.5970     4.5740 h1         1 5WB       0.046367
     31 H1CB        -8.6980     1.4280     6.0270 h1         1 5WB       0.046367
     32 H1D          0.3280     0.4600     7.0920 h1         1 5WB       0.009033
     33 H1DA         0.0570     1.5800     8.1800 h1         1 5WB       0.009033
     34 H1DB        -1.0140     0.0740     8.1550 h1         1 5WB       0.009033
     35 H1E         -2.3660    -1.0330     0.8380 hc         1 5WB       0.067700
     36 H1EA        -2.6920     0.3370     2.0130 hc         1 5WB       0.067700
     37 H1EB        -2.4680     0.7810     0.4180 hc         1 5WB       0.067700
     38 HN1F         2.4480     0.8320    -1.5330 hn         1 5WB       0.427800
     39 HN1A         2.2340    -0.5270    -2.0270 hn         1 5WB       0.427800
     40 HN1G         3.0130     0.5020     3.3530 hn         1 5WB       0.441300
     41 HN1B         1.9670    -0.8200     4.0180 hn         1 5WB       0.441300
     42 H1J         -4.0150    -1.5530     6.3810 ha         1 5WB       0.131000
     43 H1K         -3.2630     2.5310     4.9650 ha         1 5WB       0.131000
     44 H1Z         -1.9840    -0.6100     6.3910 h1         1 5WB       0.037700
     45 O1N         -6.6910    -1.3060     5.6270 os         1 5WB      -0.344900
     46 C1D         -0.5300     0.8730     7.6070 c3         1 5WB       0.158700
     47 O1O         -5.6740     3.2100     4.1490 os         1 5WB      -0.344900
     48 O1P         -7.2790     1.4110     4.7620 os         1 5WB      -0.313900
@<TRIPOS>BOND
     1     6     1 ar  
     2     1     2 ar  
     3     2    11 1   
     4     2     3 ar  
     5     4     3 ar  
     6     5     4 ar  
     7     4    12 1   
     8     6     5 ar  
     9    13     5 1   
    10    10     6 1   
    11    45     7 1   
    12     7    23 1   
    13     7    24 1   
    14     7    25 1   
    15    47     8 1   
    16     8    26 1   
    17     8    27 1   
    18     8    28 1   
    19    48     9 1   
    20     9    29 1   
    21     9    30 1   
    22     9    31 1   
    23    46    17 1   
    24    46    32 1   
    25    46    33 1   
    26    46    34 1   
    27    10    35 1   
    28    10    36 1   
    29    10    37 1   
    30    11    38 1   
    31    11    39 1   
    32    12    40 1   
    33    12    41 1   
    34    14    13 3   
    35    22    14 1   
    36    19    15 ar  
    37    15    18 ar  
    38    15    42 1   
    39    20    16 ar  
    40    16    18 ar  
    41    16    43 1   
    42    45    19 1   
    43    47    20 1   
    44    48    21 1   
    45    17    22 1   
    46    18    22 1   
    47    21    19 ar  
    48    21    20 ar  
    49    22    44 1   
@<TRIPOS>SUBSTRUCTURE
     1 5WB         1 TEMP              0 ****  ****    0 ROOT
