@<TRIPOS>MOLECULE
molecule
   57    61     1     0     0
SMALL
bcc


@<TRIPOS>ATOM
      1 C1           0.0000     0.0000     0.0000 cx         1 5WC      -0.143700
      2 C2           1.5470     0.0000     0.0000 c3         1 5WC      -0.053400
      3 C3          -0.4000     0.5670     1.3750 cx         1 5WC      -0.028300
      4 C11          6.4450    -0.6720     3.0530 ca         1 5WC      -0.120300
      5 C13         -0.1510     2.6460     3.5110 c3         1 5WC      -0.015700
      6 C16          0.8050     4.8570     4.2050 ca         1 5WC      -0.206500
      7 C17          1.1230     5.4600     5.4410 ca         1 5WC      -0.121900
      8 C18          0.7620     4.4540     6.4420 cc         1 5WC       0.198900
      9 C20          1.0440     5.5740     3.0390 ca         1 5WC       0.470200
     10 C22          1.8550     7.3770     4.2460 ca         1 5WC       0.440200
     11 C23          1.6580     6.7460     5.4430 ca         1 5WC      -0.204300
     12 C24          0.8930     4.5770     7.9050 c          1 5WC       0.471800
     13 C27          7.4950    -0.2150     3.8320 ca         1 5WC       0.161900
     14 C28          8.2380    -1.1110     4.5830 ca         1 5WC      -0.007600
     15 C29          7.9310    -2.4590     4.5540 ca         1 5WC      -0.093000
     16 C30          6.8840    -2.9130     3.7750 ca         1 5WC      -0.126000
     17 N4           0.8450     0.8750     2.1000 n          1 5WC      -0.443800
     18 C5           1.8880     0.0000     1.5110 c3         1 5WC       0.037700
     19 C6           3.2610     0.5700     1.7550 c          1 5WC       0.657100
     20 N7           4.3000    -0.2530     1.9990 ns         1 5WC      -0.644900
     21 O8           3.4320     1.7700     1.7320 o          1 5WC      -0.575100
     22 C9           5.6350     0.3020     2.2350 c3         1 5WC       0.343000
     23 C10          6.3310     0.5440     0.8950 c3         1 5WC      -0.443100
     24 N14          0.3070     3.6180     4.5060 na         1 5WC       0.225900
     25 O15          2.0710     1.8660     3.6610 o          1 5WC      -0.564100
     26 N19          0.2940     3.4190     5.7760 nd         1 5WC      -0.480100
     27 N21          1.5500     6.7880     3.1010 nb         1 5WC      -0.642000
     28 N25          0.5140     3.5590     8.7030 nz         1 5WC      -0.675400
     29 O26          1.3430     5.5960     8.3920 o          1 5WC      -0.418100
     30 C31          6.1440    -2.0200     3.0210 ca         1 5WC      -0.102000
     31 C34         -0.7080    -0.9100     1.0080 cx         1 5WC      -0.085400
     32 H1          -0.5620     0.4460    -0.8110 hc         1 5WC       0.109700
     33 H2           1.9290    -0.8940    -0.4780 hc         1 5WC       0.079700
     34 H3           1.9290     0.8940    -0.4780 hc         1 5WC       0.079700
     35 H4          -1.1930     1.3020     1.3050 h1         1 5WC       0.106700
     36 H5          -0.5360     3.1700     2.6450 h1         1 5WC       0.103200
     37 H6          -0.9350     2.0330     3.9400 h1         1 5WC       0.103200
     38 H7           0.8110     5.1350     2.0760 h4         1 5WC       0.041100
     39 H8           2.2680     8.3780     4.2350 h4         1 5WC       0.051100
     40 H9           1.9110     7.2380     6.3750 ha         1 5WC       0.163000
     41 H10          8.5120    -3.1590     5.1430 ha         1 5WC       0.156000
     42 H11          6.6450    -3.9690     3.7510 ha         1 5WC       0.145000
     43 H12          1.8100    -1.0020     1.9150 h1         1 5WC       0.070700
     44 H13          4.1660    -1.2450     1.9820 hn         1 5WC       0.323500
     45 H14          5.5470     1.2390     2.7710 h1         1 5WC       0.099700
     46 H15          5.2740     0.3720     1.0570 hc         1 5WC       0.111367
     47 H16          6.0160     0.9030    -0.0780 hc         1 5WC       0.111367
     48 H17          6.3960     1.4690     1.4550 hc         1 5WC       0.111367
     49 H18         -0.4640     3.3870     8.5830 hn         1 5WC       0.479800
     50 H19          0.6960     3.7990     9.6580 hn         1 5WC       0.479800
     51 H20          5.3230    -2.3780     2.4110 ha         1 5WC       0.126000
     52 H21         -1.7460    -1.1310     0.7900 hc         1 5WC       0.091700
     53 H22         -0.0820    -1.6520     1.4890 hc         1 5WC       0.091700
     54 C12          1.0020     1.7680     3.0970 c          1 5WC       0.666100
     55 F            7.7930     1.1020     3.8590 f          1 5WC      -0.120900
     56 H253         1.0360     2.7380     8.4680 hn         1 5WC       0.479800
     57 Cl           9.5560    -0.5410     5.5600 cl         1 5WC      -0.073400
@<TRIPOS>BOND
     1    10    11 ar  
     2    10    27 ar  
     3    11     7 ar  
     4    27     9 ar  
     5    29    12 2   
     6     7     6 ar  
     7     7     8 1   
     8     9     6 ar  
     9    12     8 1   
    10    12    28 1   
    11     6    24 1   
    12     8    26 2   
    13    24    26 1   
    14    24     5 1   
    15     5    54 1   
    16    25    54 2   
    17    54    17 1   
    18    16    15 ar  
    19    16    30 ar  
    20    21    19 2   
    21    15    14 ar  
    22    30     4 ar  
    23    17     3 1   
    24    17    18 1   
    25     3    31 1   
    26     3     1 1   
    27    19    18 1   
    28    19    20 1   
    29    14    13 ar  
    30    14    57 1   
    31     4    13 ar  
    32     4    22 1   
    33    18     2 1   
    34    31     1 1   
    35     1     2 1   
    36    13    55 1   
    37    22    20 1   
    38    22    23 1   
    39     1    32 1   
    40     2    33 1   
    41     2    34 1   
    42     3    35 1   
    43     5    36 1   
    44     5    37 1   
    45     9    38 1   
    46    10    39 1   
    47    11    40 1   
    48    15    41 1   
    49    16    42 1   
    50    18    43 1   
    51    20    44 1   
    52    22    45 1   
    53    23    46 1   
    54    23    47 1   
    55    23    48 1   
    56    28    49 1   
    57    28    50 1   
    58    30    51 1   
    59    31    52 1   
    60    31    53 1   
    61    56    28 1   
@<TRIPOS>SUBSTRUCTURE
     1 5WC         1 TEMP              0 ****  ****    0 ROOT
