@<TRIPOS>MOLECULE
5WC
   57    62     1     0     0
SMALL
bcc


@<TRIPOS>ATOM
      1 C1           0.0000     0.0000     0.0000 cx         1 5WC      -0.156000
      2 C2           1.5470     0.0000     0.0000 c3         1 5WC      -0.061000
      3 C3          -0.4000     0.5670     1.3750 cx         1 5WC      -0.211000
      4 C11          6.4450    -0.6720     3.0530 ca         1 5WC      -0.136000
      5 C13         -0.1510     2.6460     3.5110 c3         1 5WC      -0.143000
      6 C16          0.8050     4.8570     4.2050 c2         1 5WC      -0.289000
      7 C17          1.1230     5.4600     5.4410 c2         1 5WC      -0.014000
      8 C18          0.7620     4.4540     6.4420 c2         1 5WC      -0.280000
      9 C20          1.0440     5.5740     3.0390 c2         1 5WC       0.009000
     10 C22          1.8550     7.3770     4.2460 c2         1 5WC      -0.025000
     11 C23          1.6580     6.7460     5.4430 c2         1 5WC      -0.110000
     12 C24          0.8930     4.5770     7.9050 c2         1 5WC       0.144000
     13 C27          7.4950    -0.2150     3.8320 ca         1 5WC       0.107000
     14 C28          8.2380    -1.1110     4.5830 ca         1 5WC      -0.152000
     15 C29          7.9310    -2.4590     4.5540 ca         1 5WC      -0.067000
     16 C30          6.8840    -2.9130     3.7750 ca         1 5WC      -0.093000
     17 N4           0.8450     0.8750     2.1000 n          1 5WC       0.081000
     18 C5           1.8880     0.0000     1.5110 c3         1 5WC      -0.083000
     19 C6           3.2610     0.5700     1.7550 c2         1 5WC       0.233000
     20 N7           4.3000    -0.2530     1.9990 ns         1 5WC      -0.094000
     21 O8           3.4320     1.7700     1.7320 o          1 5WC      -0.376000
     22 C9           5.6350     0.3020     2.2350 DU         1 5WC       0.235000
     23 C10          6.3310     0.5440     0.8950 c3         1 5WC      -0.508000
     24 N14          0.3070     3.6180     4.5060 na         1 5WC       0.488000
     25 O15          2.0710     1.8660     3.6610 o          1 5WC      -0.380000
     26 N19          0.2940     3.4190     5.7760 n2         1 5WC      -0.133000
     27 N21          1.5500     6.7880     3.1010 n2         1 5WC      -0.012000
     28 N25          0.5140     3.5590     8.7030 nz         1 5WC       0.824000
     29 O26          1.3430     5.5960     8.3920 o          1 5WC      -0.212000
     30 C31          6.1440    -2.0200     3.0210 ca         1 5WC      -0.081000
     31 C34         -0.7080    -0.9100     1.0080 cx         1 5WC      -0.083000
     32 H1          -0.5620     0.4460    -0.8110 hc         1 5WC       0.121000
     33 H2           1.9290    -0.8940    -0.4780 hc         1 5WC       0.083000
     34 H3           1.9290     0.8940    -0.4780 hc         1 5WC       0.083000
     35 H4          -1.1930     1.3020     1.3050 h1         1 5WC       0.121000
     36 H5          -0.5360     3.1700     2.6450 h1         1 5WC       0.107000
     37 H6          -0.9350     2.0330     3.9400 h1         1 5WC       0.107000
     38 H7           0.8110     5.1350     2.0760 h4         1 5WC       0.128000
     39 H8           2.2680     8.3780     4.2350 h4         1 5WC       0.136000
     40 H9           1.9110     7.2380     6.3750 ha         1 5WC       0.136000
     41 H10          8.5120    -3.1590     5.1430 ha         1 5WC       0.122000
     42 H11          6.6450    -3.9690     3.7510 ha         1 5WC       0.112000
     43 H12          1.8100    -1.0020     1.9150 h1         1 5WC       0.086000
     44 H13          4.1660    -1.2450     1.9820 hn         1 5WC       0.119000
     45 H14          5.5470     1.2390     2.7710 ha         1 5WC       0.104000
     46 H15          5.2740     0.3720     1.0570 DU         1 5WC       0.108000
     47 H16          6.0160     0.9030    -0.0780 hc         1 5WC       0.124500
     48 H17          6.3960     1.4690     1.4550 hc         1 5WC       0.124500
     49 H18         -0.4640     3.3870     8.5830 hn         1 5WC       0.039000
     50 H19          0.6960     3.7990     9.6580 hn         1 5WC       0.039000
     51 H20          5.3230    -2.3780     2.4110 ha         1 5WC       0.101000
     52 H21         -1.7460    -1.1310     0.7900 hc         1 5WC       0.095000
     53 H22         -0.0820    -1.6520     1.4890 hc         1 5WC       0.095000
     54 C12          1.0020     1.7680     3.0970 c2         1 5WC       0.232000
     55 F            7.7930     1.1020     3.8590 f          1 5WC      -0.082000
     56 H253         1.0360     2.7380     8.4680 hn         1 5WC       0.039000
     57 Cl           9.5560    -0.5410     5.5600 cl         1 5WC       0.099000
@<TRIPOS>BOND
     1     1     2 1   
     2     1     3 1   
     3     1    31 1   
     4     1    32 1   
     5     2    18 1   
     6     2    33 1   
     7     2    34 1   
     8     3    17 1   
     9     3    31 1   
    10     3    35 1   
    11     4    13 1   
    12     4    22 1   
    13     4    30 1   
    14     5    24 1   
    15     5    36 1   
    16     5    37 1   
    17     5    54 1   
    18     6     7 1   
    19     6     9 1   
    20     6    24 1   
    21     7     8 1   
    22     7    11 1   
    23     8    12 1   
    24     8    26 1   
    25     9    27 1   
    26     9    38 1   
    27    10    11 1   
    28    10    27 1   
    29    10    39 1   
    30    11    40 1   
    31    12    28 1   
    32    12    29 1   
    33    13    14 1   
    34    13    55 1   
    35    14    15 1   
    36    14    57 1   
    37    15    16 1   
    38    15    41 1   
    39    16    30 1   
    40    16    42 1   
    41    17    18 1   
    42    17    54 1   
    43    18    19 1   
    44    18    43 1   
    45    19    20 1   
    46    19    21 1   
    47    20    22 1   
    48    20    44 1   
    49    22    23 1   
    50    22    45 1   
    51    22    46 1   
    52    23    46 1   
    53    23    47 1   
    54    23    48 1   
    55    24    26 1   
    56    25    54 1   
    57    28    49 1   
    58    28    50 1   
    59    28    56 1   
    60    30    51 1   
    61    31    52 1   
    62    31    53 1   
@<TRIPOS>SUBSTRUCTURE
     1 5WC         1 TEMP              0 ****  ****    0 ROOT
