@<TRIPOS>MOLECULE
5WD
   37    39     1     0     0
SMALL
bcc


@<TRIPOS>ATOM
      1 C1           0.0000     0.0000     0.0000 ca         1 5WD       0.161100
      2 C2           1.3930     0.0000     0.0000 ca         1 5WD      -0.104000
      3 C3           2.0940     0.0000     1.1840 ca         1 5WD      -0.095000
      4 C14          0.1050     0.0110    -2.3760 c3         1 5WD       0.272700
      5 C15         -0.8100     0.0170    -3.5730 ca         1 5WD      -0.178300
      6 C16         -1.2330    -1.1790    -4.1240 ca         1 5WD      -0.107000
      7 C17         -2.0730    -1.1840    -5.2240 ca         1 5WD      -0.143000
      8 C18         -2.4930     0.0080    -5.7790 ca         1 5WD      -0.040000
      9 C19         -2.0700     1.2180    -5.2280 ca         1 5WD      -0.102600
     10 C20         -1.2280     1.2150    -4.1150 ca         1 5WD      -0.049000
     11 C21         -2.5170     2.4980    -5.8170 c          1 5WD       0.971200
     12 C4          -0.6970     0.0010     1.1900 ca         1 5WD      -0.078000
     13 C5           0.0030     0.0010     2.4030 ca         1 5WD      -0.107800
     14 C6           1.4120     0.0010     2.3970 ca         1 5WD      -0.196200
     15 N7           1.8290     0.0000     3.7100 na         1 5WD       0.316600
     16 C8           0.7160     0.0000     4.5290 cc         1 5WD      -0.443300
     17 C9          -0.4040     0.0010     3.7600 cd         1 5WD       0.065800
     18 C10          0.7410     0.0000     5.9990 c          1 5WD       0.371300
     19 N11          1.9190     0.0000     6.6530 nz         1 5WD       0.202600
     20 O12         -0.3020    -0.0010     6.6250 o          1 5WD      -0.454100
     21 O13         -0.6770     0.0060    -1.1790 os         1 5WD      -0.276900
     22 O22         -3.3330     2.4970    -6.8880 o          1 5WD      -0.876300
     23 O23         -2.1470     3.5490    -5.3360 o          1 5WD      -0.876300
     24 H1           1.9290    -0.0010    -0.9410 ha         1 5WD       0.140000
     25 H2           3.1770    -0.0000     1.1720 ha         1 5WD       0.107000
     26 H3           0.7300     0.8960    -2.3950 h1         1 5WD      -0.003800
     27 H4           0.7300    -0.8730    -2.4030 h1         1 5WD      -0.003800
     28 H5          -0.9060    -2.1170    -3.6920 ha         1 5WD       0.082000
     29 H6          -2.4010    -2.1240    -5.6500 ha         1 5WD       0.091000
     30 H7          -3.2020     0.0040    -6.5980 ha         1 5WD       0.134000
     31 H8          -0.8420     2.1500    -3.7250 ha         1 5WD       0.121000
     32 H9          -1.7800     0.0010     1.1870 ha         1 5WD       0.136000
     33 H10          2.7810     0.0000     4.0190 hn         1 5WD       0.099700
     34 H11         -1.4260     0.0010     4.1200 ha         1 5WD       0.147000
     35 H12          2.4400     0.8170     6.4020 hn         1 5WD       0.239467
     36 H13          1.7530     0.0010     7.6400 hn         1 5WD       0.239467
     37 H113         2.4400    -0.8170     6.4030 hn         1 5WD       0.239467
@<TRIPOS>BOND
     1     1     2 ar  
     2     1    12 ar  
     3     1    21 1   
     4     2     3 ar  
     5     2    24 1   
     6     3    14 ar  
     7     3    25 1   
     8     4     5 1   
     9     4    21 1   
    10     4    26 1   
    11     4    27 1   
    12     5     6 ar  
    13     5    10 ar  
    14     6     7 ar  
    15     6    28 1   
    16     7     8 ar  
    17     7    29 1   
    18     8     9 ar  
    19     8    30 1   
    20     9    10 ar  
    21     9    11 1   
    22    10    31 1   
    23    11    22 1   
    24    11    23 1   
    25    12    13 ar  
    26    12    32 1   
    27    13    14 ar  
    28    13    17 1   
    29    14    15 1   
    30    15    16 1   
    31    15    33 1   
    32    16    17 2   
    33    16    18 1   
    34    17    34 1   
    35    18    19 1   
    36    18    20 2   
    37    19    35 1   
    38    19    36 1   
    39    19    37 1   
@<TRIPOS>SUBSTRUCTURE
     1 5WD         1 TEMP              0 ****  ****    0 ROOT
