@<TRIPOS>MOLECULE
molecule
   37    39     1     0     0
SMALL
bcc


@<TRIPOS>ATOM
      1 C1           0.0000     0.0000     0.0000 ca         1 5WD       0.149100
      2 C2           1.3930     0.0000     0.0000 ca         1 5WD      -0.121000
      3 C3           2.0940     0.0000     1.1840 ca         1 5WD      -0.138000
      4 C14          0.1050     0.0110    -2.3760 c3         1 5WD       0.188700
      5 C15         -0.8100     0.0170    -3.5730 ca         1 5WD      -0.150300
      6 C16         -1.2330    -1.1790    -4.1240 ca         1 5WD      -0.128000
      7 C17         -2.0730    -1.1840    -5.2240 ca         1 5WD      -0.164000
      8 C18         -2.4930     0.0080    -5.7790 ca         1 5WD      -0.070000
      9 C19         -2.0700     1.2180    -5.2280 ca         1 5WD      -0.102600
     10 C20         -1.2280     1.2150    -4.1150 ca         1 5WD      -0.076000
     11 C21         -2.5170     2.4980    -5.8170 c          1 5WD       0.880200
     12 C4          -0.6970     0.0010     1.1900 ca         1 5WD      -0.105000
     13 C5           0.0030     0.0010     2.4030 ca         1 5WD      -0.106800
     14 C6           1.4120     0.0010     2.3970 ca         1 5WD      -0.014200
     15 N7           1.8290     0.0000     3.7100 na         1 5WD      -0.211400
     16 C8           0.7160     0.0000     4.5290 cc         1 5WD      -0.241300
     17 C9          -0.4040     0.0010     3.7600 cd         1 5WD       0.017800
     18 C10          0.7410     0.0000     5.9990 c          1 5WD       0.514300
     19 N11          1.9190     0.0000     6.6530 nz         1 5WD      -0.678400
     20 O12         -0.3020    -0.0010     6.6250 o          1 5WD      -0.438100
     21 O13         -0.6770     0.0060    -1.1790 os         1 5WD      -0.296900
     22 O22         -3.3330     2.4970    -6.8880 o          1 5WD      -0.827800
     23 O23         -2.1470     3.5490    -5.3360 o          1 5WD      -0.827800
     24 H1           1.9290    -0.0010    -0.9410 ha         1 5WD       0.167000
     25 H2           3.1770    -0.0000     1.1720 ha         1 5WD       0.137000
     26 H3           0.7300     0.8960    -2.3950 h1         1 5WD       0.033200
     27 H4           0.7300    -0.8730    -2.4030 h1         1 5WD       0.033200
     28 H5          -0.9060    -2.1170    -3.6920 ha         1 5WD       0.102000
     29 H6          -2.4010    -2.1240    -5.6500 ha         1 5WD       0.115000
     30 H7          -3.2020     0.0040    -6.5980 ha         1 5WD       0.163000
     31 H8          -0.8420     2.1500    -3.7250 ha         1 5WD       0.147000
     32 H9          -1.7800     0.0010     1.1870 ha         1 5WD       0.170000
     33 H10          2.7810     0.0000     4.0190 hn         1 5WD       0.281700
     34 H11         -1.4260     0.0010     4.1200 ha         1 5WD       0.185000
     35 H12          2.4400     0.8170     6.4020 hn         1 5WD       0.471800
     36 H13          1.7530     0.0010     7.6400 hn         1 5WD       0.471800
     37 H113         2.4400    -0.8170     6.4030 hn         1 5WD       0.471800
@<TRIPOS>BOND
     1     7     6 ar
     2     7     8 ar
     3     6     5 ar
     4     8     9 ar
     5    19    18 1
     6    17    16 2
     7    17    13 1
     8    18    16 1
     9    18    20 2
    10    12    13 ar
    11    12     1 ar
    12     5     4 1
    13     5    10 ar
    14    16    15 1
    15    13    14 ar
    16    21     1 1
    17    21     4 1
    18     1     2 ar
    19    15    14 1
    20    14     3 ar
    21     9    10 ar
    22     9    11 1
    23     2     3 ar
    24    23    11 1
    25    11    22 1
    26     2    24 1
    27     3    25 1
    28     4    26 1
    29     4    27 1
    30     6    28 1
    31     7    29 1
    32     8    30 1
    33    10    31 1
    34    12    32 1
    35    15    33 1
    36    17    34 1
    37    19    35 1
    38    19    36 1
    39    37    19 1
@<TRIPOS>SUBSTRUCTURE
     1 5WD         1 TEMP              0 ****  ****    0 ROOT
