@<TRIPOS>MOLECULE
molecule
   67    71     1     0     0
SMALL
bcc


@<TRIPOS>ATOM
      1 C2           0.0000     0.0000     0.0000 cc         1 5WE       0.405200
      2 C3           1.3470     0.0000     0.0000 cd         1 5WE      -0.219600
      3 C4          -0.0990    -0.0020     2.3140 cd         1 5WE       0.740200
      4 C5           1.3100    -0.0020     2.3700 cd         1 5WE      -0.233600
      5 C12          6.6610    -1.0370     0.3850 c3         1 5WE      -0.097400
      6 C13          6.7570     0.2620     1.2230 c3         1 5WE       0.096000
      7 N14          5.4950     0.9760     0.9580 n          1 5WE      -0.485800
      8 N15         -0.8450    -0.0020     3.4810 nv         1 5WE      -1.065500
      9 C16          1.9600    -0.0030     4.8480 ca         1 5WE       0.035200
     10 C17          0.9890    -0.8660     5.3670 ca         1 5WE      -0.116000
     11 C18          0.7280    -0.8720     6.7070 ca         1 5WE      -0.088500
     12 C19          1.4310    -0.0130     7.5610 ca         1 5WE      -0.155600
     13 C20          2.4010     0.8490     7.0400 ca         1 5WE      -0.088500
     14 C21          2.6620     0.8540     5.7000 ca         1 5WE      -0.116000
     15 C22          1.1480    -0.0190     9.0080 c          1 5WE       0.675700
     16 O37          4.2200     2.7870     0.8310 o          1 5WE      -0.602100
     17 C30          5.3050     2.3050     1.0760 c          1 5WE       0.683100
     18 C31          6.4410     3.1930     1.5150 c3         1 5WE      -0.152400
     19 C32          5.9640     4.6450     1.5670 c3         1 5WE      -0.068400
     20 C11          5.1560    -1.3880     0.5240 c3         1 5WE      -0.088400
     21 C10          4.4790    -0.0010     0.5420 c3         1 5WE       0.129400
     22 C7           3.3360    -0.0010     1.5240 cd         1 5WE       0.335800
     23 N6           2.0310     0.0000     1.1930 na         1 5WE       0.010800
     24 N8           3.4620    -0.0020     2.8250 nc         1 5WE      -0.545300
     25 C9           2.2470    -0.0030     3.3980 cc         1 5WE       0.095400
     26 N1          -0.7010    -0.0000     1.1390 nc         1 5WE      -0.722000
     27 O24          0.3040    -0.7680     9.4600 o          1 5WE      -0.590100
     28 N23          1.8240     0.8070     9.8300 ns         1 5WE      -0.514400
     29 C25          1.5590     0.8020    11.1920 cc         1 5WE       0.540300
     30 N29          2.1500     1.5550    12.0680 nd         1 5WE      -0.747000
     31 S26          0.3980    -0.1900    11.9600 ss         1 5WE      -0.082300
     32 C28          1.7720     1.4190    13.3250 cd         1 5WE       0.390200
     33 C27          0.8150     0.5110    13.5210 cc         1 5WE      -0.256400
     34 H1          -0.5280     0.0010    -0.9460 h4         1 5WE       0.038100
     35 H2           1.8900     0.0000    -0.9370 h4         1 5WE       0.168000
     36 H3           7.2800    -1.8170     0.8110 hc         1 5WE       0.058700
     37 H4           6.9190    -0.8480    -0.6500 hc         1 5WE       0.058700
     38 H5           6.8400     0.0230     2.2760 h1         1 5WE       0.052200
     39 H6           7.6010     0.8570     0.8970 h1         1 5WE       0.052200
     40 H7          -0.9660     0.8480     3.9960 hn         1 5WE       0.446300
     41 H8          -1.3190    -0.8340     3.7710 hn         1 5WE       0.446300
     42 H9           0.4450    -1.5300     4.7070 ha         1 5WE       0.147500
     43 H10         -0.0230    -1.5400     7.1100 ha         1 5WE       0.142000
     44 H11          2.9450     1.5140     7.7000 ha         1 5WE       0.142000
     45 H12          3.4130     1.5220     5.2970 ha         1 5WE       0.147500
     46 H13          7.2600     3.1070     0.8100 hc         1 5WE       0.059700
     47 H14          5.1460     4.7310     2.2730 hc         1 5WE       0.066200
     48 H15          5.6260     4.9500     0.5840 hc         1 5WE       0.066200
     49 H16          4.9720    -1.9150     1.4520 hc         1 5WE       0.065700
     50 H17          4.8190    -1.9670    -0.3280 hc         1 5WE       0.065700
     51 H18          4.1190     0.2440    -0.4500 h1         1 5WE       0.065700
     52 H19          2.5210     1.4220     9.4580 hn         1 5WE       0.345500
     53 H20          2.2050     1.9980    14.1320 h4         1 5WE       0.040100
     54 H21          0.3690     0.2530    14.4740 h4         1 5WE       0.177000
     55 C1           7.1170     5.5470     2.0120 c3         1 5WE       0.159800
     56 N2           6.6590     6.9410     2.0620 n3         1 5WE      -0.729600
     57 C8           5.6460     7.1240     3.1130 c3         1 5WE       0.150100
     58 C14          7.7870     7.8600     2.2540 c3         1 5WE       0.150100
     59 H22          6.7790     2.8880     2.4980 hc         1 5WE       0.059700
     60 H23          7.4550     5.2420     2.9950 h1         1 5WE       0.029200
     61 H24          7.9350     5.4610     1.3070 h1         1 5WE       0.029200
     62 H25          5.7210     8.1270     3.5150 h1         1 5WE       0.032367
     63 H26          4.6590     6.9760     2.6920 h1         1 5WE       0.032367
     64 H27          5.8130     6.4040     3.9050 h1         1 5WE       0.032367
     65 H28          7.4220     8.8800     2.2770 h1         1 5WE       0.032367
     66 H29          8.2830     7.6330     3.1900 h1         1 5WE       0.032367
     67 H30          8.4890     7.7460     1.4360 h1         1 5WE       0.032367
@<TRIPOS>BOND
     1    16    17 2
     2    19    18 1
     3     1     2 2
     4     1    26 1
     5     2    23 1
     6    17    18 1
     7    17     7 1
     8    21     7 1
     9    21    20 1
    10    21    22 1
    11     7     6 1
    12    26     3 2
    13    23    22 1
    14    23     4 1
    15    20     5 1
    16    22    24 2
    17     6     5 1
    18     3     4 1
    19     3     8 1
    20     4    25 2
    21    24    25 1
    22    25     9 1
    23    10     9 ar
    24    10    11 ar
    25     9    14 ar
    26    11    12 ar
    27    14    13 ar
    28    13    12 ar
    29    12    15 1
    30    15    28 1
    31    15    27 2
    32    28    29 1
    33    29    30 2
    34    29    31 1
    35    30    32 1
    36    31    33 1
    37    32    33 2
    38     1    34 1
    39     2    35 1
    40     5    36 1
    41     5    37 1
    42     6    38 1
    43     6    39 1
    44     8    40 1
    45     8    41 1
    46    10    42 1
    47    11    43 1
    48    13    44 1
    49    14    45 1
    50    18    46 1
    51    19    47 1
    52    19    48 1
    53    20    49 1
    54    20    50 1
    55    21    51 1
    56    28    52 1
    57    32    53 1
    58    33    54 1
    59    19    55 1
    60    55    56 1
    61    56    57 1
    62    56    58 1
    63    18    59 1
    64    55    60 1
    65    55    61 1
    66    57    62 1
    67    57    63 1
    68    57    64 1
    69    58    65 1
    70    58    66 1
    71    58    67 1
@<TRIPOS>SUBSTRUCTURE
     1 5WE         1 TEMP              0 ****  ****    0 ROOT
