@<TRIPOS>MOLECULE
molecule
   70    75     1     0     0
SMALL
bcc


@<TRIPOS>ATOM
      1 O38          0.0000     0.0000     0.0000 o          1 5WF      -0.603100
      2 C36          1.2130     0.0000     0.0000 c          1 5WF       0.670100
      3 C37          1.9650     0.0000     1.3060 cy         1 5WF      -0.222000
      4 C42          2.5420    -1.3720     1.6640 c3         1 5WF      -0.064100
      5 C41          1.2070     0.6810     2.4600 cy         1 5WF       0.135400
      6 O40          2.4740     1.2890     2.7840 oq         1 5WF      -0.412600
      7 C39          2.9780     1.1540     1.4400 cy         1 5WF       0.135400
      8 N34          1.8880    -0.0070    -1.1670 n          1 5WF      -0.490800
      9 C33          1.1730     0.1130    -2.4440 c3         1 5WF       0.104000
     10 C32          1.5800    -1.0550    -3.3480 c3         1 5WF      -0.101400
     11 C31          3.1040    -1.0850    -3.4820 c3         1 5WF      -0.073400
     12 C35          3.3510    -0.1280    -1.1840 c3         1 5WF       0.104000
     13 C29          3.7340    -1.2990    -2.1030 c3         1 5WF      -0.074000
     14 C27          5.2340    -1.3610    -2.2390 cc         1 5WF       0.336800
     15 N26          6.0000    -2.4120    -1.8930 na         1 5WF       0.001800
     16 C22          5.7380    -3.6510    -1.3570 cd         1 5WF      -0.231600
     17 C21          6.7500    -4.5060    -1.1200 cc         1 5WF       0.411200
     18 C25          7.3070    -2.0760    -2.1770 cd         1 5WF      -0.242600
     19 C23          8.3320    -3.0080    -1.9080 cd         1 5WF       0.746200
     20 N30          9.6520    -2.6950    -2.1840 nv         1 5WF      -1.065500
     21 N20          8.0190    -4.1830    -1.3940 nc         1 5WF      -0.723000
     22 N28          5.9860    -0.4030    -2.7150 nc         1 5WF      -0.550300
     23 C24          7.2730    -0.7870    -2.7000 cc         1 5WF       0.104400
     24 C3           8.4330     0.0070    -3.1550 ca         1 5WF       0.023200
     25 C2           9.3800    -0.5650    -4.0090 ca         1 5WF      -0.112500
     26 C4           8.5790     1.3330    -2.7370 ca         1 5WF      -0.112500
     27 C5           9.6490     2.0680    -3.1580 ca         1 5WF      -0.092000
     28 C6          10.6010     1.4940    -4.0080 ca         1 5WF      -0.149600
     29 C1          10.4520     0.1690    -4.4310 ca         1 5WF      -0.092000
     30 C7          11.7580     2.2870    -4.4630 c          1 5WF       0.664700
     31 O8          11.8850     3.4410    -4.0990 o          1 5WF      -0.529100
     32 N9          12.6750     1.7340    -5.2810 ns         1 5WF      -0.551400
     33 C15         13.8270     2.4410    -5.6160 ca         1 5WF       0.561200
     34 N10         14.0710     3.6070    -5.0370 nb         1 5WF      -0.665000
     35 C14         14.7110     1.9150    -6.5500 ca         1 5WF      -0.258300
     36 C13         15.8520     2.6290    -6.8730 ca         1 5WF      -0.114300
     37 C16         16.8360     2.0930    -7.8800 c3         1 5WF       0.674200
     38 F19         18.1210     2.5470    -7.5650 f          1 5WF      -0.219633
     39 F18         16.8160     0.6940    -7.8540 f          1 5WF      -0.219633
     40 F17         16.4840     2.5400    -9.1590 f          1 5WF      -0.219633
     41 C12         16.0700     3.8480    -6.2480 ca         1 5WF      -0.249300
     42 C11         15.1520     4.3090    -5.3250 ca         1 5WF       0.456200
     43 H1           2.1540    -2.1170     0.9800 hc         1 5WF       0.046033
     44 H2           3.6220    -1.3400     1.5890 hc         1 5WF       0.046033
     45 H3           2.2580    -1.6290     2.6780 hc         1 5WF       0.046033
     46 H4           0.4650     1.3940     2.1220 h1         1 5WF       0.069200
     47 H5           0.8630    -0.0160     3.2150 h1         1 5WF       0.069200
     48 H6           2.7440     2.0030     0.8090 h1         1 5WF       0.069200
     49 H7           4.0090     0.8250     1.4010 h1         1 5WF       0.069200
     50 H8           1.4380     1.0500    -2.9210 h1         1 5WF       0.065700
     51 H9           0.1050     0.0790    -2.2670 h1         1 5WF       0.065700
     52 H10          1.2380    -1.9850    -2.9110 hc         1 5WF       0.053700
     53 H11          1.1360    -0.9240    -4.3280 hc         1 5WF       0.053700
     54 H12          3.4480    -0.1440    -3.8920 hc         1 5WF       0.058700
     55 H13          3.3910    -1.8980    -4.1380 hc         1 5WF       0.058700
     56 H14          3.7870     0.7890    -1.5640 h1         1 5WF       0.065200
     57 H15          3.7120    -0.3200    -0.1810 h1         1 5WF       0.065200
     58 H16          3.3650    -2.2250    -1.6780 hc         1 5WF       0.060700
     59 H17          4.7190    -3.9380    -1.1260 h4         1 5WF       0.169000
     60 H18          6.5310    -5.4800    -0.6980 h4         1 5WF       0.040100
     61 H19         10.1080    -3.1050    -2.9750 hn         1 5WF       0.447300
     62 H20         10.1710    -2.1170    -1.5530 hn         1 5WF       0.447300
     63 H21          9.2640    -1.5910    -4.3370 ha         1 5WF       0.144500
     64 H22          7.8410     1.7770    -2.0800 ha         1 5WF       0.144500
     65 H23          9.7630     3.0950    -2.8330 ha         1 5WF       0.141500
     66 H24         11.1870    -0.2760    -5.0910 ha         1 5WF       0.141500
     67 H25         12.5060     0.8340    -5.6840 hn         1 5WF       0.333500
     68 H26         14.4240     1.0550    -7.1430 ha         1 5WF       0.149000
     69 H27         16.9540     4.4310    -6.4780 ha         1 5WF       0.155000
     70 H28         15.3180     5.2600    -4.8330 h4         1 5WF       0.038100
@<TRIPOS>BOND
     1    21    17 1
     2    21    19 2
     3    29    25 ar
     4    29    28 ar
     5    25    24 ar
     6    17    16 2
     7    20    19 1
     8    39    37 1
     9    19    18 1
    10    31    30 2
    11    38    37 1
    12    16    15 1
    13    18    15 1
    14    18    23 2
    15    15    14 1
    16    37    40 1
    17    37    36 1
    18    23    24 1
    19    23    22 1
    20    28    30 1
    21    28    27 ar
    22    24    26 ar
    23    30    32 1
    24    14    22 2
    25    14    13 1
    26    11    13 1
    27    11    10 1
    28    35    36 ar
    29    35    33 ar
    30    13    12 1
    31    10     9 1
    32    36    41 ar
    33    32    33 1
    34    27    26 ar
    35    33    34 ar
    36     4     3 1
    37    12     8 1
    38    41    42 ar
    39     9     8 1
    40     8     2 1
    41     1     2 2
    42     2     3 1
    43    34    42 ar
    44     3     7 1
    45     3     5 1
    46     7     6 1
    47     5     6 1
    48     4    43 1
    49     4    44 1
    50     4    45 1
    51     5    46 1
    52     5    47 1
    53     7    48 1
    54     7    49 1
    55     9    50 1
    56     9    51 1
    57    10    52 1
    58    10    53 1
    59    11    54 1
    60    11    55 1
    61    12    56 1
    62    12    57 1
    63    13    58 1
    64    16    59 1
    65    17    60 1
    66    20    61 1
    67    20    62 1
    68    25    63 1
    69    26    64 1
    70    27    65 1
    71    29    66 1
    72    32    67 1
    73    35    68 1
    74    41    69 1
    75    42    70 1
@<TRIPOS>SUBSTRUCTURE
     1 5WF         1 TEMP              0 ****  ****    0 ROOT
