@<TRIPOS>MOLECULE
5WF
   70    75     1     0     0
SMALL
bcc


@<TRIPOS>ATOM
      1 O38          0.0000     0.0000     0.0000 o          1 5WF      -0.641100
      2 C36          1.2130     0.0000     0.0000 c          1 5WF       0.603100
      3 C37          1.9650     0.0000     1.3060 cy         1 5WF      -0.242000
      4 C42          2.5420    -1.3720     1.6640 c3         1 5WF       0.037900
      5 C41          1.2070     0.6810     2.4600 cy         1 5WF       0.218400
      6 O40          2.4740     1.2890     2.7840 oq         1 5WF      -0.410600
      7 C39          2.9780     1.1540     1.4400 cy         1 5WF       0.218400
      8 N34          1.8880    -0.0070    -1.1670 n          1 5WF      -0.148800
      9 C33          1.1730     0.1130    -2.4440 c3         1 5WF       0.048000
     10 C32          1.5800    -1.0550    -3.3480 c3         1 5WF      -0.041400
     11 C31          3.1040    -1.0850    -3.4820 c3         1 5WF      -0.026400
     12 C35          3.3510    -0.1280    -1.1840 c3         1 5WF       0.024000
     13 C29          3.7340    -1.2990    -2.1030 c3         1 5WF      -0.035000
     14 C27          5.2340    -1.3610    -2.2390 cc         1 5WF       0.082800
     15 N26          6.0000    -2.4120    -1.8930 na         1 5WF       0.591800
     16 C22          5.7380    -3.6510    -1.3570 cc         1 5WF      -0.431600
     17 C21          6.7500    -4.5060    -1.1200 cd         1 5WF       0.450200
     18 C25          7.3070    -2.0760    -2.1770 cc         1 5WF      -0.445600
     19 C23          8.3320    -3.0080    -1.9080 cc         1 5WF       0.606200
     20 N30          9.6520    -2.6950    -2.1840 nv         1 5WF      -0.639500
     21 N20          8.0190    -4.1830    -1.3940 nd         1 5WF      -0.642000
     22 N28          5.9860    -0.4030    -2.7150 nd         1 5WF      -0.448300
     23 C24          7.2730    -0.7870    -2.7000 cd         1 5WF       0.079400
     24 C3           8.4330     0.0070    -3.1550 ca         1 5WF       0.026200
     25 C2           9.3800    -0.5650    -4.0090 ca         1 5WF      -0.099000
     26 C4           8.5790     1.3330    -2.7370 ca         1 5WF      -0.099000
     27 C5           9.6490     2.0680    -3.1580 ca         1 5WF      -0.061000
     28 C6          10.6010     1.4940    -4.0080 ca         1 5WF      -0.165600
     29 C1          10.4520     0.1690    -4.4310 ca         1 5WF      -0.061000
     30 C7          11.7580     2.2870    -4.4630 c          1 5WF       0.572700
     31 O8          11.8850     3.4410    -4.0990 o          1 5WF      -0.571100
     32 N9          12.6750     1.7340    -5.2810 ns         1 5WF      -0.120400
     33 C15         13.8270     2.4410    -5.6160 ca         1 5WF       0.366200
     34 N10         14.0710     3.6070    -5.0370 nb         1 5WF      -0.534000
     35 C14         14.7110     1.9150    -6.5500 ca         1 5WF      -0.218300
     36 C13         15.8520     2.6290    -6.8730 ca         1 5WF      -0.147300
     37 C16         16.8360     2.0930    -7.8800 c3         1 5WF       0.640200
     38 F19         18.1210     2.5470    -7.5650 f          1 5WF      -0.205633
     39 F18         16.8160     0.6940    -7.8540 f          1 5WF      -0.205633
     40 F17         16.4840     2.5400    -9.1590 f          1 5WF      -0.205633
     41 C12         16.0700     3.8480    -6.2480 ca         1 5WF      -0.203300
     42 C11         15.1520     4.3090    -5.3250 ca         1 5WF       0.434200
     43 H1           2.1540    -2.1170     0.9800 hc         1 5WF       0.011367
     44 H2           3.6220    -1.3400     1.5890 hc         1 5WF       0.011367
     45 H3           2.2580    -1.6290     2.6780 hc         1 5WF       0.011367
     46 H4           0.4650     1.3940     2.1220 h1         1 5WF       0.027450
     47 H5           0.8630    -0.0160     3.2150 h1         1 5WF       0.027450
     48 H6           2.7440     2.0030     0.8090 h1         1 5WF       0.027450
     49 H7           4.0090     0.8250     1.4010 h1         1 5WF       0.027450
     50 H8           1.4380     1.0500    -2.9210 h1         1 5WF       0.038700
     51 H9           0.1050     0.0790    -2.2670 h1         1 5WF       0.038700
     52 H10          1.2380    -1.9850    -2.9110 hc         1 5WF       0.023200
     53 H11          1.1360    -0.9240    -4.3280 hc         1 5WF       0.023200
     54 H12          3.4480    -0.1440    -3.8920 hc         1 5WF       0.029700
     55 H13          3.3910    -1.8980    -4.1380 hc         1 5WF       0.029700
     56 H14          3.7870     0.7890    -1.5640 h1         1 5WF       0.044200
     57 H15          3.7120    -0.3200    -0.1810 h1         1 5WF       0.044200
     58 H16          3.3650    -2.2250    -1.6780 hc         1 5WF       0.028700
     59 H17          4.7190    -3.9380    -1.1260 h4         1 5WF       0.151000
     60 H18          6.5310    -5.4800    -0.6980 h4         1 5WF      -0.008900
     61 H19         10.1080    -3.1050    -2.9750 hn         1 5WF       0.288300
     62 H20         10.1710    -2.1170    -1.5530 hn         1 5WF       0.288300
     63 H21          9.2640    -1.5910    -4.3370 ha         1 5WF       0.116500
     64 H22          7.8410     1.7770    -2.0800 ha         1 5WF       0.116500
     65 H23          9.7630     3.0950    -2.8330 ha         1 5WF       0.114000
     66 H24         11.1870    -0.2760    -5.0910 ha         1 5WF       0.114000
     67 H25         12.5060     0.8340    -5.6840 hn         1 5WF       0.178500
     68 H26         14.4240     1.0550    -7.1430 ha         1 5WF       0.127000
     69 H27         16.9540     4.4310    -6.4780 ha         1 5WF       0.129000
     70 H28         15.3180     5.2600    -4.8330 h4         1 5WF      -0.010900
@<TRIPOS>BOND
     1     1     2 2   
     2     2     3 1   
     3     2     8 1   
     4     3     4 1   
     5     3     5 1   
     6     3     7 1   
     7     4    43 1   
     8     4    44 1   
     9     4    45 1   
    10     5     6 1   
    11     5    46 1   
    12     5    47 1   
    13     6     7 1   
    14     7    48 1   
    15     7    49 1   
    16     8     9 1   
    17     8    12 1   
    18     9    10 1   
    19     9    50 1   
    20     9    51 1   
    21    10    11 1   
    22    10    52 1   
    23    10    53 1   
    24    11    13 1   
    25    11    54 1   
    26    11    55 1   
    27    12    13 1   
    28    12    56 1   
    29    12    57 1   
    30    13    14 1   
    31    13    58 1   
    32    14    15 1   
    33    14    22 2   
    34    15    16 1   
    35    15    18 1   
    36    16    17 2   
    37    16    59 1   
    38    17    21 1   
    39    17    60 1   
    40    18    19 1   
    41    18    23 2   
    42    19    20 1   
    43    19    21 2   
    44    20    61 1   
    45    20    62 1   
    46    22    23 1   
    47    23    24 1   
    48    24    25 ar  
    49    24    26 ar  
    50    25    29 ar  
    51    25    63 1   
    52    26    27 ar  
    53    26    64 1   
    54    27    28 ar  
    55    27    65 1   
    56    28    29 ar  
    57    28    30 1   
    58    29    66 1   
    59    30    31 2   
    60    30    32 1   
    61    32    33 1   
    62    32    67 1   
    63    33    34 ar  
    64    33    35 ar  
    65    34    42 ar  
    66    35    36 ar  
    67    35    68 1   
    68    36    37 1   
    69    36    41 ar  
    70    37    38 1   
    71    37    39 1   
    72    37    40 1   
    73    41    42 ar  
    74    41    69 1   
    75    42    70 1   
@<TRIPOS>SUBSTRUCTURE
     1 5WF         1 TEMP              0 ****  ****    0 ROOT
