@<TRIPOS>MOLECULE
5WH
   69    74     1     0     0
SMALL
bcc


@<TRIPOS>ATOM
      1 N01          0.0000     0.0000     0.0000 nc         1 5WH      -0.636000
      2 C02          1.3380     0.0000     0.0000 cc         1 5WH       0.445200
      3 C03          2.0430     0.0000     1.1470 cd         1 5WH      -0.423600
      4 C04         -0.6860     0.0000     1.1280 cd         1 5WH       0.603200
      5 C05          0.0050     0.0000     2.3570 cd         1 5WH      -0.439600
      6 N06          1.3850    -0.0000     2.3550 na         1 5WH       0.589800
      7 C07          1.7870    -0.0010     3.6390 cd         1 5WH       0.087800
      8 N08          0.7450    -0.0000     4.4290 nc         1 5WH      -0.436300
      9 C09         -0.3810     0.0000     3.6940 cc         1 5WH       0.072400
     10 C10          3.2230    -0.0020     4.0990 c3         1 5WH      -0.036000
     11 N11         -2.0700    -0.0000     1.1050 nv         1 5WH      -0.645500
     12 C12          3.4900     1.2480     4.9460 c3         1 5WH       0.035000
     13 C13          4.9540    -1.2700     5.3820 c3         1 5WH      -0.038400
     14 C14          5.2410    -0.0360     6.2430 c3         1 5WH       0.022700
     15 N15          4.8500     1.1660     5.4920 n          1 5WH      -0.142800
     16 C16          3.4890    -1.2510     4.9420 c3         1 5WH      -0.032400
     17 C17         -1.7650    -0.0000     4.2090 ca         1 5WH      -0.000800
     18 C18         -2.1830    -1.0020     5.0930 ca         1 5WH       0.120900
     19 C19         -3.4760    -0.9990     5.5700 ca         1 5WH      -0.067000
     20 C20         -4.3630     0.0050     5.1700 ca         1 5WH      -0.138600
     21 C21         -3.9380     1.0020     4.2870 ca         1 5WH      -0.105000
     22 C22         -2.6560     1.0030     3.8180 ca         1 5WH      -0.076000
     23 F23         -1.3220    -1.9700     5.4750 f          1 5WH      -0.116900
     24 C24         -5.7470     0.0110     5.6790 c          1 5WH       0.568700
     25 O25         -6.1170    -0.8570     6.4480 o          1 5WH      -0.565100
     26 N26         -6.6030     0.9790     5.2940 ns         1 5WH      -0.117400
     27 C27         -7.8760     1.0470     5.8540 ca         1 5WH       0.363200
     28 N28         -8.2750     0.1020     6.6910 nb         1 5WH      -0.531000
     29 C29         -9.4740     0.1280     7.2430 ca         1 5WH       0.433200
     30 C30        -10.3600     1.1500     6.9650 ca         1 5WH      -0.204300
     31 C31         -9.9790     2.1600     6.0910 ca         1 5WH      -0.148300
     32 C32         -8.7150     2.1090     5.5320 ca         1 5WH      -0.212300
     33 C33        -10.9210     3.2910     5.7650 c3         1 5WH       0.640200
     34 F34        -11.1740     3.3030     4.3890 f          1 5WH      -0.205300
     35 F35        -12.1230     3.1120     6.4590 f          1 5WH      -0.205300
     36 F36        -10.3390     4.5060     6.1440 f          1 5WH      -0.205300
     37 C37          4.4310    -0.1150     7.5390 c3         1 5WH      -0.023100
     38 C38          5.7260     2.1740     5.3070 c          1 5WH       0.630100
     39 O39          6.8470     2.0950     5.7640 o          1 5WH      -0.649100
     40 C40          5.3120     3.4000     4.5350 cx         1 5WH      -0.223700
     41 C41          6.3490     4.5110     4.3620 cx         1 5WH      -0.050400
     42 C42          5.1660     4.7090     5.3120 cx         1 5WH      -0.050400
     43 H1           1.8660    -0.0000    -0.9460 h4         1 5WH      -0.007900
     44 H2           3.1260    -0.0000     1.1190 h4         1 5WH       0.152000
     45 H3           3.8820    -0.0010     3.2400 hc         1 5WH       0.026700
     46 H4          -2.5670     0.8480     0.9170 hn         1 5WH       0.286300
     47 H5          -2.5710    -0.8600     1.2100 hn         1 5WH       0.286300
     48 H6           2.7750     1.2940     5.7590 h1         1 5WH       0.040700
     49 H7           3.4010     2.1310     4.3250 h1         1 5WH       0.040700
     50 H8           5.5930    -1.2550     4.5070 hc         1 5WH       0.023700
     51 H9           5.1450    -2.1650     5.9610 hc         1 5WH       0.023700
     52 H10          6.2990     0.0080     6.4710 h1         1 5WH       0.069700
     53 H11          3.2790    -2.1340     4.3510 hc         1 5WH       0.032700
     54 H12          2.8500    -1.2370     5.8170 hc         1 5WH       0.032700
     55 H13         -3.8040    -1.7720     6.2550 ha         1 5WH       0.146000
     56 H14         -4.6260     1.7810     3.9800 ha         1 5WH       0.102000
     57 H15         -2.3310     1.7780     3.1340 ha         1 5WH       0.115000
     58 H16         -6.3080     1.6750     4.6380 hn         1 5WH       0.177500
     59 H17         -9.7660    -0.6630     7.9240 h4         1 5WH      -0.009900
     60 H18        -11.3420     1.1620     7.4210 ha         1 5WH       0.133000
     61 H19         -8.3870     2.8800     4.8470 ha         1 5WH       0.124000
     62 H20          3.4490     0.3120     7.3770 hc         1 5WH       0.015033
     63 H21          4.9420     0.4380     8.3180 hc         1 5WH       0.015033
     64 H22          4.3300    -1.1510     7.8380 hc         1 5WH       0.015033
     65 H23          4.6250     3.2870     3.7050 hc         1 5WH       0.063700
     66 H24          7.3060     4.3350     4.8370 hc         1 5WH       0.051950
     67 H25          6.2960     5.0590     3.4290 hc         1 5WH       0.051950
     68 H26          5.4010     4.6550     6.3680 hc         1 5WH       0.051950
     69 H27          4.3910     5.3790     4.9600 hc         1 5WH       0.051950
@<TRIPOS>BOND
     1     1     2 1   
     2     1     4 2   
     3     2     3 2   
     4     2    43 1   
     5     3     6 1   
     6     3    44 1   
     7     4     5 1   
     8     4    11 1   
     9     5     6 1   
    10     5     9 2   
    11     6     7 1   
    12     7     8 2   
    13     7    10 1   
    14     8     9 1   
    15     9    17 1   
    16    10    12 1   
    17    10    16 1   
    18    10    45 1   
    19    11    46 1   
    20    11    47 1   
    21    12    15 1   
    22    12    48 1   
    23    12    49 1   
    24    13    14 1   
    25    13    16 1   
    26    13    50 1   
    27    13    51 1   
    28    14    15 1   
    29    14    37 1   
    30    14    52 1   
    31    15    38 1   
    32    16    53 1   
    33    16    54 1   
    34    17    18 ar  
    35    17    22 ar  
    36    18    19 ar  
    37    18    23 1   
    38    19    20 ar  
    39    19    55 1   
    40    20    21 ar  
    41    20    24 1   
    42    21    22 ar  
    43    21    56 1   
    44    22    57 1   
    45    24    25 2   
    46    24    26 1   
    47    26    27 1   
    48    26    58 1   
    49    27    28 ar  
    50    27    32 ar  
    51    28    29 ar  
    52    29    30 ar  
    53    29    59 1   
    54    30    31 ar  
    55    30    60 1   
    56    31    32 ar  
    57    31    33 1   
    58    32    61 1   
    59    33    34 1   
    60    33    35 1   
    61    33    36 1   
    62    37    62 1   
    63    37    63 1   
    64    37    64 1   
    65    38    39 2   
    66    38    40 1   
    67    40    41 1   
    68    40    42 1   
    69    40    65 1   
    70    41    42 1   
    71    41    66 1   
    72    41    67 1   
    73    42    68 1   
    74    42    69 1   
@<TRIPOS>SUBSTRUCTURE
     1 5WH         1 TEMP              0 ****  ****    0 ROOT
