@<TRIPOS>MOLECULE
molecule
   69    74     1     0     0
SMALL
bcc


@<TRIPOS>ATOM
      1 N01          0.0000     0.0000     0.0000 nc         1 5WH      -0.720000
      2 C02          1.3380     0.0000     0.0000 cc         1 5WH       0.406200
      3 C03          2.0430     0.0000     1.1470 cd         1 5WH      -0.225600
      4 C04         -0.6860     0.0000     1.1280 cd         1 5WH       0.743200
      5 C05          0.0050     0.0000     2.3570 cd         1 5WH      -0.238600
      6 N06          1.3850    -0.0000     2.3550 na         1 5WH       0.000800
      7 C07          1.7870    -0.0010     3.6390 cd         1 5WH       0.341800
      8 N08          0.7450    -0.0000     4.4290 nc         1 5WH      -0.539300
      9 C09         -0.3810     0.0000     3.6940 cc         1 5WH       0.100400
     10 C10          3.2230    -0.0020     4.0990 c3         1 5WH      -0.076000
     11 N11         -2.0700    -0.0000     1.1050 nv         1 5WH      -1.068500
     12 C12          3.4900     1.2480     4.9460 c3         1 5WH       0.109000
     13 C13          4.9540    -1.2700     5.3820 c3         1 5WH      -0.095400
     14 C14          5.2410    -0.0360     6.2430 c3         1 5WH       0.111700
     15 N15          4.8500     1.1660     5.4920 n          1 5WH      -0.484800
     16 C16          3.4890    -1.2510     4.9420 c3         1 5WH      -0.073400
     17 C17         -1.7650    -0.0000     4.2090 ca         1 5WH      -0.011800
     18 C18         -2.1830    -1.0020     5.0930 ca         1 5WH       0.150900
     19 C19         -3.4760    -0.9990     5.5700 ca         1 5WH      -0.110000
     20 C20         -4.3630     0.0050     5.1700 ca         1 5WH      -0.124600
     21 C21         -3.9380     1.0020     4.2870 ca         1 5WH      -0.133000
     22 C22         -2.6560     1.0030     3.8180 ca         1 5WH      -0.089000
     23 F23         -1.3220    -1.9700     5.4750 f          1 5WH      -0.119900
     24 C24         -5.7470     0.0110     5.6790 c          1 5WH       0.662700
     25 O25         -6.1170    -0.8570     6.4480 o          1 5WH      -0.522100
     26 N26         -6.6030     0.9790     5.2940 ns         1 5WH      -0.550400
     27 C27         -7.8760     1.0470     5.8540 ca         1 5WH       0.559200
     28 N28         -8.2750     0.1020     6.6910 nb         1 5WH      -0.663000
     29 C29         -9.4740     0.1280     7.2430 ca         1 5WH       0.456200
     30 C30        -10.3600     1.1500     6.9650 ca         1 5WH      -0.250300
     31 C31         -9.9790     2.1600     6.0910 ca         1 5WH      -0.114300
     32 C32         -8.7150     2.1090     5.5320 ca         1 5WH      -0.254300
     33 C33        -10.9210     3.2910     5.7650 c3         1 5WH       0.674200
     34 F34        -11.1740     3.3030     4.3890 f          1 5WH      -0.219300
     35 F35        -12.1230     3.1120     6.4590 f          1 5WH      -0.219300
     36 F36        -10.3390     4.5060     6.1440 f          1 5WH      -0.219300
     37 C37          4.4310    -0.1150     7.5390 c3         1 5WH      -0.109100
     38 C38          5.7260     2.1740     5.3070 c          1 5WH       0.699100
     39 O39          6.8470     2.0950     5.7640 o          1 5WH      -0.610100
     40 C40          5.3120     3.4000     4.5350 cx         1 5WH      -0.238700
     41 C41          6.3490     4.5110     4.3620 cx         1 5WH      -0.109400
     42 C42          5.1660     4.7090     5.3120 cx         1 5WH      -0.109400
     43 H1           1.8660    -0.0000    -0.9460 h4         1 5WH       0.040100
     44 H2           3.1260    -0.0000     1.1190 h4         1 5WH       0.170000
     45 H3           3.8820    -0.0010     3.2400 hc         1 5WH       0.059700
     46 H4          -2.5670     0.8480     0.9170 hn         1 5WH       0.445800
     47 H5          -2.5710    -0.8600     1.2100 hn         1 5WH       0.445800
     48 H6           2.7750     1.2940     5.7590 h1         1 5WH       0.065200
     49 H7           3.4010     2.1310     4.3250 h1         1 5WH       0.065200
     50 H8           5.5930    -1.2550     4.5070 hc         1 5WH       0.052700
     51 H9           5.1450    -2.1650     5.9610 hc         1 5WH       0.052700
     52 H10          6.2990     0.0080     6.4710 h1         1 5WH       0.093700
     53 H11          3.2790    -2.1340     4.3510 hc         1 5WH       0.059700
     54 H12          2.8500    -1.2370     5.8170 hc         1 5WH       0.059700
     55 H13         -3.8040    -1.7720     6.2550 ha         1 5WH       0.176000
     56 H14         -4.6260     1.7810     3.9800 ha         1 5WH       0.125000
     57 H15         -2.3310     1.7780     3.1340 ha         1 5WH       0.143000
     58 H16         -6.3080     1.6750     4.6380 hn         1 5WH       0.333500
     59 H17         -9.7660    -0.6630     7.9240 h4         1 5WH       0.039100
     60 H18        -11.3420     1.1620     7.4210 ha         1 5WH       0.159000
     61 H19         -8.3870     2.8800     4.8470 ha         1 5WH       0.147000
     62 H20          3.4490     0.3120     7.3770 hc         1 5WH       0.044367
     63 H21          4.9420     0.4380     8.3180 hc         1 5WH       0.044367
     64 H22          4.3300    -1.1510     7.8380 hc         1 5WH       0.044367
     65 H23          4.6250     3.2870     3.7050 hc         1 5WH       0.084700
     66 H24          7.3060     4.3350     4.8370 hc         1 5WH       0.084200
     67 H25          6.2960     5.0590     3.4290 hc         1 5WH       0.084200
     68 H26          5.4010     4.6550     6.3680 hc         1 5WH       0.084200
     69 H27          4.3910     5.3790     4.9600 hc         1 5WH       0.084200
@<TRIPOS>BOND
     1    41    42 1   
     2    41    40 1   
     3    42    40 1   
     4    39    38 2   
     5    40    38 1   
     6    38    15 1   
     7     2     3 2   
     8     2     1 1   
     9     3     6 1   
    10    15    12 1   
    11    15    14 1   
    12     1     4 2   
    13    12    10 1   
    14    14    13 1   
    15    14    37 1   
    16    10     7 1   
    17    10    16 1   
    18     6     7 1   
    19     6     5 1   
    20    13    16 1   
    21     4     5 1   
    22     4    11 1   
    23     7     8 2   
    24     5     9 2   
    25     8     9 1   
    26     9    17 1   
    27    23    18 1   
    28    17    18 ar  
    29    17    22 ar  
    30    18    19 ar  
    31    22    21 ar  
    32    19    20 ar  
    33    21    20 ar  
    34    20    24 1   
    35    24    25 2   
    36    24    26 1   
    37    26    27 1   
    38    27    28 ar  
    39    27    32 ar  
    40    28    29 ar  
    41    32    31 ar  
    42    29    30 ar  
    43    31    30 ar  
    44    31    33 1   
    45    34    33 1   
    46    33    35 1   
    47    33    36 1   
    48     2    43 1   
    49     3    44 1   
    50    10    45 1   
    51    11    46 1   
    52    11    47 1   
    53    12    48 1   
    54    12    49 1   
    55    13    50 1   
    56    13    51 1   
    57    14    52 1   
    58    16    53 1   
    59    16    54 1   
    60    19    55 1   
    61    21    56 1   
    62    22    57 1   
    63    26    58 1   
    64    29    59 1   
    65    30    60 1   
    66    32    61 1   
    67    37    62 1   
    68    37    63 1   
    69    37    64 1   
    70    40    65 1   
    71    41    66 1   
    72    41    67 1   
    73    42    68 1   
    74    42    69 1   
@<TRIPOS>SUBSTRUCTURE
     1 5WH         1 TEMP              0 ****  ****    0 ROOT
