@<TRIPOS>MOLECULE
5WJ
   59    62     1     0     0
SMALL
bcc


@<TRIPOS>ATOM
      1 C10          0.0000     0.0000     0.0000 c3         1 5WJ      -0.026900
      2 C7           0.5380     1.5990     2.8150 c3         1 5WJ       0.235300
      3 C1           4.6350     2.8820     5.5110 ca         1 5WJ      -0.151400
      4 C2           5.7560     2.0620     5.4080 ca         1 5WJ       0.169100
      5 C3           7.7380     1.0820     6.2820 c3         1 5WJ       0.249700
      6 C4           6.0000     1.3740     4.2310 ca         1 5WJ      -0.227000
      7 C5           5.1330     1.5000     3.1630 ca         1 5WJ       0.034000
      8 C6           4.0190     2.3140     3.2650 ca         1 5WJ      -0.181500
      9 C16          1.8190     9.3840     6.9040 c          1 5WJ       0.597100
     10 N3           2.1190     8.4350     5.9920 ns         1 5WJ       0.094100
     11 N2           2.7130     7.2260     6.3570 nc         1 5WJ      -0.443300
     12 C17          2.1360     9.1310     8.3150 ca         1 5WJ      -0.146600
     13 C22          2.7370     7.8970     8.6550 ca         1 5WJ      -0.126900
     14 C21          3.0490     7.6260     9.9890 ca         1 5WJ      -0.105000
     15 C20          2.7670     8.5660    10.9570 ca         1 5WJ      -0.072000
     16 C19          2.1760     9.7770    10.6210 ca         1 5WJ      -0.111000
     17 C18          1.8590    10.0660     9.3120 ca         1 5WJ      -0.024000
     18 C15          3.0140     6.9370     7.5880 cd         1 5WJ       0.360900
     19 C14          3.6540     5.6110     7.9150 c3         1 5WJ      -0.105700
     20 C            3.8300     4.8130     6.6480 c          1 5WJ       0.542100
     21 O            3.4710     5.2740     5.5860 o          1 5WJ      -0.579100
     22 C13          3.7680     3.0050     4.4340 ca         1 5WJ       0.031000
     23 O1           6.6090     1.9390     6.4600 os         1 5WJ      -0.317900
     24 S            2.9180     2.4710     1.8980 sy         1 5WJ       1.048200
     25 O2           2.2460     3.7110     2.0650 o          1 5WJ      -0.586300
     26 O3           3.6690     2.1430     0.7370 o          1 5WJ      -0.586300
     27 N1           1.7670     1.2910     2.0590 n3         1 5WJ      -0.523500
     28 C12          2.0090     0.0000     1.4520 c3         1 5WJ       0.235300
     29 C11          1.4710     0.0000     0.0000 c3         1 5WJ      -0.047400
     30 C9          -0.6290     1.2380     0.6350 c3         1 5WJ      -0.026900
     31 C8          -0.7210     1.0400     2.1280 c3         1 5WJ      -0.047400
     32 H1          -0.3420    -0.0690    -1.0260 hc         1 5WJ       0.016450
     33 H2          -0.3420    -0.8730     0.5420 hc         1 5WJ       0.016450
     34 H3           0.4410     2.6740     2.9020 h1         1 5WJ       0.017950
     35 H4           0.6170     1.1670     3.8050 h1         1 5WJ       0.017950
     36 H5           8.3310     1.0740     7.1890 h1         1 5WJ       0.000700
     37 H6           7.3970     0.0770     6.0650 h1         1 5WJ       0.000700
     38 H7           8.3420     1.4450     5.4590 h1         1 5WJ       0.000700
     39 H8           6.8720     0.7350     4.1480 ha         1 5WJ       0.126000
     40 H9           5.3260     0.9610     2.2430 ha         1 5WJ       0.121000
     41 H10          1.9100     8.6030     5.0270 hn         1 5WJ       0.212500
     42 H11          3.5100     6.6840    10.2610 ha         1 5WJ       0.109000
     43 H12          3.0090     8.3570    11.9920 ha         1 5WJ       0.103000
     44 H13          1.9630    10.5020    11.3970 ha         1 5WJ       0.108000
     45 H14          1.3980    11.0130     9.0590 ha         1 5WJ       0.129000
     46 H15          4.6210     5.7800     8.3730 hc         1 5WJ       0.037700
     47 H16          3.0200     5.0630     8.6010 hc         1 5WJ       0.037700
     48 H17          4.5830     3.1620     7.5820 hn         1 5WJ       0.169500
     49 H18          2.8950     3.6410     4.5110 ha         1 5WJ       0.165000
     50 H19          1.5000    -0.7670     2.0240 h1         1 5WJ       0.017950
     51 H20          3.0740    -0.1980     1.4410 h1         1 5WJ       0.017950
     52 H21          1.8270     0.8850    -0.5130 hc         1 5WJ       0.023700
     53 H22          1.8270    -0.8850    -0.5130 hc         1 5WJ       0.023700
     54 H23         -0.0130     2.1030     0.4230 hc         1 5WJ       0.016450
     55 H24         -1.6220     1.3860     0.2290 hc         1 5WJ       0.016450
     56 H25         -1.5940     1.5600     2.5030 hc         1 5WJ       0.023700
     57 H26         -0.8070    -0.0180     2.3440 hc         1 5WJ       0.023700
     58 N            4.3850     3.5860     6.6970 ns         1 5WJ      -0.036100
     59 O4           1.3020    10.4320     6.5620 o          1 5WJ      -0.674500
@<TRIPOS>BOND
     1     1    29 1   
     2     1    30 1   
     3     1    32 1   
     4     1    33 1   
     5     2    27 1   
     6     2    31 1   
     7     2    34 1   
     8     2    35 1   
     9     3     4 ar  
    10     3    22 ar  
    11     3    58 1   
    12     4     6 ar  
    13     4    23 1   
    14     5    23 1   
    15     5    36 1   
    16     5    37 1   
    17     5    38 1   
    18     6     7 ar  
    19     6    39 1   
    20     7     8 ar  
    21     7    40 1   
    22     8    22 ar  
    23     8    24 1   
    24     9    10 1   
    25     9    12 1   
    26     9    59 2   
    27    10    11 1   
    28    10    41 1   
    29    11    18 2   
    30    12    13 ar  
    31    12    17 ar  
    32    13    14 ar  
    33    13    18 1   
    34    14    15 ar  
    35    14    42 1   
    36    15    16 ar  
    37    15    43 1   
    38    16    17 ar  
    39    16    44 1   
    40    17    45 1   
    41    18    19 1   
    42    19    20 1   
    43    19    46 1   
    44    19    47 1   
    45    20    21 2   
    46    20    58 1   
    47    22    49 1   
    48    24    25 2   
    49    24    26 2   
    50    24    27 1   
    51    27    28 1   
    52    28    29 1   
    53    28    50 1   
    54    28    51 1   
    55    29    52 1   
    56    29    53 1   
    57    30    31 1   
    58    30    54 1   
    59    30    55 1   
    60    31    56 1   
    61    31    57 1   
    62    48    58 1   
@<TRIPOS>SUBSTRUCTURE
     1 5WJ         1 TEMP              0 ****  ****    0 ROOT
