@<TRIPOS>MOLECULE
molecule
   26    27     1     0     0
SMALL
bcc


@<TRIPOS>ATOM
      1 C10          0.0000     0.0000     0.0000 c3         1 5WK       0.440900
      2 C01          5.6030     0.0040     2.6390 ca         1 5WK       0.180100
      3 C02          6.9870    -0.0000     2.5880 ca         1 5WK      -0.193000
      4 C03          7.6350    -0.0050     1.3670 ca         1 5WK      -0.094000
      5 C04          6.9070    -0.0070     0.1900 ca         1 5WK      -0.157000
      6 C05          5.5270    -0.0030     0.2270 ca         1 5WK      -0.113000
      7 C06          4.8640     0.0030     1.4510 ca         1 5WK      -0.142500
      8 C07          3.5680     0.0000     0.9710 cc         1 5WK       0.394800
      9 C08          2.5470     0.0000     0.0000 cc         1 5WK      -0.234300
     10 C09          1.3610    -0.0010     0.6470 cd         1 5WK      -0.159600
     11 N01          1.6090    -0.0010     1.9740 na         1 5WK      -0.032600
     12 N            2.9980    -0.0060     2.1570 nd         1 5WK      -0.479800
     13 F01         -0.9110     0.6580     0.8330 f          1 5WK      -0.207800
     14 F02          0.0690     0.6600    -1.2320 f          1 5WK      -0.207800
     15 C           -0.4620    -1.4430    -0.2190 c3         1 5WK       0.373900
     16 F03         -1.7250    -1.4430    -0.8200 f          1 5WK      -0.214800
     17 F            0.4510    -2.1020    -1.0520 f          1 5WK      -0.214800
     18 H1           5.3380     0.6690     4.3930 ho         1 5WK       0.417000
     19 H2           7.5620     0.0010     3.5060 ha         1 5WK       0.140000
     20 H3           8.7180    -0.0090     1.3310 ha         1 5WK       0.132000
     21 H4           7.4220    -0.0110    -0.7630 ha         1 5WK       0.131000
     22 H5           4.9600    -0.0040    -0.6970 ha         1 5WK       0.141000
     23 H6           2.6870     0.0760    -1.0720 ha         1 5WK       0.171000
     24 H7           0.9200    -0.0040     2.7010 hn         1 5WK       0.330700
     25 H8          -0.5150    -1.9540     0.7340 h2         1 5WK       0.088700
     26 O            4.9650     0.0040     3.8380 oh         1 5WK      -0.489100
@<TRIPOS>BOND
     1     5     4 ar  
     2     5     6 ar  
     3     4     3 ar  
     4     6     7 ar  
     5     3     2 ar  
     6     2     7 ar  
     7     2    26 1   
     8     7     8 1   
     9     8     9 1   
    10     8    12 2   
    11     9    10 2   
    12    12    11 1   
    13    13     1 1   
    14    10    11 1   
    15    10     1 1   
    16     1    14 1   
    17     1    15 1   
    18    17    15 1   
    19    15    16 1   
    20    26    18 1   
    21     3    19 1   
    22     4    20 1   
    23     5    21 1   
    24     6    22 1   
    25     9    23 1   
    26    11    24 1   
    27    15    25 1   
@<TRIPOS>SUBSTRUCTURE
     1 5WK         1 TEMP              0 ****  ****    0 ROOT
