@<TRIPOS>MOLECULE
5WL
   52    55     1     0     0
SMALL
bcc


@<TRIPOS>ATOM
      1 CAA          0.0000     0.0000     0.0000 c3         1 5WL       0.021700
      2 SBE          1.8130     0.0000     0.0000 s6         1 5WL       0.955600
      3 OAC          2.3120     0.0000     1.3310 o          1 5WL      -0.564800
      4 OAD          2.3120    -0.9130    -0.9690 o          1 5WL      -0.564800
      5 NAS          2.2280     1.4900    -0.5910 ns         1 5WL      -0.325300
      6 CAV          1.9190     2.6010     0.1070 c          1 5WL       0.704300
      7 OAB          1.3350     2.5090     1.1700 o          1 5WL      -0.602100
      8 CAZ          2.2860     3.9240    -0.4190 cc         1 5WL      -0.357300
      9 NAT          2.9470     4.1590    -1.6090 na         1 5WL       0.377600
     10 CBB          3.1140     5.5150    -1.7640 ca         1 5WL      -0.203200
     11 CAO          3.7000     6.2950    -2.7560 ca         1 5WL      -0.110000
     12 CAW          3.7150     7.6670    -2.6290 ca         1 5WL      -0.000600
     13 Cl           4.4470     8.6380    -3.8680 cl         1 5WL      -0.024400
     14 CAJ          3.1490     8.2810    -1.5170 ca         1 5WL      -0.134000
     15 CAN          2.5690     7.5370    -0.5320 ca         1 5WL      -0.016000
     16 CBD          2.5420     6.1400    -0.6380 ca         1 5WL      -0.122800
     17 CAY          2.0250     5.1120     0.1870 cd         1 5WL      -0.029400
     18 CAR          1.3150     5.3020     1.5030 c3         1 5WL       0.044800
     19 CAP          2.3390     5.2910     2.6410 c3         1 5WL      -0.030400
     20 CAQ          1.6180     5.4840     3.9760 c3         1 5WL       0.203400
     21 OAU          2.5740     5.4750     5.0390 os         1 5WL      -0.302900
     22 CAX          2.0950     5.6340     6.3000 ca         1 5WL       0.177100
     23 CBC          2.9780     5.6350     7.3990 ca         1 5WL      -0.060000
     24 CAM          4.3610     5.4720     7.2230 ca         1 5WL      -0.064000
     25 CAG          5.1840     5.4800     8.3080 ca         1 5WL      -0.118000
     26 CAF          4.6740     5.6450     9.5930 ca         1 5WL      -0.087000
     27 CAK          3.3380     5.8050     9.8020 ca         1 5WL      -0.103000
     28 CBA          2.4590     5.8050     8.7060 ca         1 5WL       0.000000
     29 CAL          1.0740     5.9690     8.8810 ca         1 5WL      -0.138000
     30 CAH          0.2500     5.9630     7.7980 ca         1 5WL      -0.051000
     31 CAI          0.7560     5.8010     6.5110 ca         1 5WL      -0.235000
     32 H1          -0.3610     0.5030     0.8890 h1         1 5WL       0.068700
     33 H2          -0.3610     0.5190    -0.8800 h1         1 5WL       0.068700
     34 H3          -0.3610    -1.0210    -0.0090 h1         1 5WL       0.068700
     35 H4           2.7450     1.5630    -1.4450 hn         1 5WL       0.226500
     36 H5           3.2540     3.4570    -2.2530 hn         1 5WL       0.115700
     37 H6           4.0750     5.8310    -3.6600 ha         1 5WL       0.114000
     38 H7           3.1700     9.3610    -1.4320 ha         1 5WL       0.118000
     39 H8           2.1310     8.0250     0.3300 ha         1 5WL       0.108000
     40 H9           0.6040     4.4980     1.6490 hc         1 5WL       0.031200
     41 H10          0.7920     6.2510     1.4970 hc         1 5WL       0.031200
     42 H11          2.8620     4.3430     2.6460 hc         1 5WL       0.029700
     43 H12          3.0500     6.0960     2.4950 hc         1 5WL       0.029700
     44 H13          1.0940     6.4320     3.9700 h1         1 5WL       0.004200
     45 H14          0.9070     4.6800     4.1220 h1         1 5WL       0.004200
     46 H15          4.7730     5.3430     6.2290 ha         1 5WL       0.116000
     47 H16          6.2510     5.3550     8.1690 ha         1 5WL       0.101000
     48 H17          5.3500     5.6470    10.4400 ha         1 5WL       0.098000
     49 H18          2.9550     5.9330    10.8070 ha         1 5WL       0.106000
     50 H19          0.6640     6.0960     9.8760 ha         1 5WL       0.107000
     51 H20         -0.8160     6.0930     7.9390 ha         1 5WL       0.096000
     52 H21          0.0770     5.8000     5.6660 ha         1 5WL       0.120000
@<TRIPOS>BOND
     1     1     2 1   
     2     1    32 1   
     3     1    33 1   
     4     1    34 1   
     5     2     3 2   
     6     2     4 2   
     7     2     5 1   
     8     5     6 1   
     9     5    35 1   
    10     6     7 2   
    11     6     8 1   
    12     8     9 1   
    13     8    17 2   
    14     9    10 1   
    15     9    36 1   
    16    10    11 ar  
    17    10    16 ar  
    18    11    12 ar  
    19    11    37 1   
    20    12    13 1   
    21    12    14 ar  
    22    14    15 ar  
    23    14    38 1   
    24    15    16 ar  
    25    15    39 1   
    26    16    17 1   
    27    17    18 1   
    28    18    19 1   
    29    18    40 1   
    30    18    41 1   
    31    19    20 1   
    32    19    42 1   
    33    19    43 1   
    34    20    21 1   
    35    20    44 1   
    36    20    45 1   
    37    21    22 1   
    38    22    23 ar  
    39    22    31 ar  
    40    23    24 ar  
    41    23    28 ar  
    42    24    25 ar  
    43    24    46 1   
    44    25    26 ar  
    45    25    47 1   
    46    26    27 ar  
    47    26    48 1   
    48    27    28 ar  
    49    27    49 1   
    50    28    29 ar  
    51    29    30 ar  
    52    29    50 1   
    53    30    31 ar  
    54    30    51 1   
    55    31    52 1   
@<TRIPOS>SUBSTRUCTURE
     1 5WL         1 TEMP              0 ****  ****    0 ROOT
