@<TRIPOS>MOLECULE
molecule
   52    55     1     0     0
SMALL
bcc


@<TRIPOS>ATOM
      1 CAA          0.0000     0.0000     0.0000 c3         1 5WL      -0.235300
      2 SBE          1.8130     0.0000     0.0000 s6         1 5WL       1.313600
      3 OAC          2.3120     0.0000     1.3310 o          1 5WL      -0.605300
      4 OAD          2.3120    -0.9130    -0.9690 o          1 5WL      -0.605300
      5 NAS          2.2280     1.4900    -0.5910 ns         1 5WL      -0.656300
      6 CAV          1.9190     2.6010     0.1070 c          1 5WL       0.720300
      7 OAB          1.3350     2.5090     1.1700 o          1 5WL      -0.561100
      8 CAZ          2.2860     3.9240    -0.4190 cc         1 5WL      -0.151300
      9 NAT          2.9470     4.1590    -1.6090 na         1 5WL      -0.170400
     10 CBB          3.1140     5.5150    -1.7640 ca         1 5WL      -0.010200
     11 CAO          3.7000     6.2950    -2.7560 ca         1 5WL      -0.147000
     12 CAW          3.7150     7.6670    -2.6290 ca         1 5WL       0.065400
     13 Cl           4.4470     8.6380    -3.8680 cl         1 5WL      -0.099400
     14 CAJ          3.1490     8.2810    -1.5170 ca         1 5WL      -0.153000
     15 CAN          2.5690     7.5370    -0.5320 ca         1 5WL      -0.055000
     16 CBD          2.5420     6.1400    -0.6380 ca         1 5WL      -0.121800
     17 CAY          2.0250     5.1120     0.1870 cd         1 5WL      -0.035400
     18 CAR          1.3150     5.3020     1.5030 c3         1 5WL      -0.020200
     19 CAP          2.3390     5.2910     2.6410 c3         1 5WL      -0.075400
     20 CAQ          1.6180     5.4840     3.9760 c3         1 5WL       0.139400
     21 OAU          2.5740     5.4750     5.0390 os         1 5WL      -0.327900
     22 CAX          2.0950     5.6340     6.3000 ca         1 5WL       0.163100
     23 CBC          2.9780     5.6350     7.3990 ca         1 5WL      -0.054000
     24 CAM          4.3610     5.4720     7.2230 ca         1 5WL      -0.089000
     25 CAG          5.1840     5.4800     8.3080 ca         1 5WL      -0.144000
     26 CAF          4.6740     5.6450     9.5930 ca         1 5WL      -0.113000
     27 CAK          3.3380     5.8050     9.8020 ca         1 5WL      -0.130000
     28 CBA          2.4590     5.8050     8.7060 ca         1 5WL      -0.003000
     29 CAL          1.0740     5.9690     8.8810 ca         1 5WL      -0.160000
     30 CAH          0.2500     5.9630     7.7980 ca         1 5WL      -0.084000
     31 CAI          0.7560     5.8010     6.5110 ca         1 5WL      -0.240000
     32 H1          -0.3610     0.5030     0.8890 h1         1 5WL       0.105700
     33 H2          -0.3610     0.5190    -0.8800 h1         1 5WL       0.105700
     34 H3          -0.3610    -1.0210    -0.0090 h1         1 5WL       0.105700
     35 H4           2.7450     1.5630    -1.4450 hn         1 5WL       0.341500
     36 H5           3.2540     3.4570    -2.2530 hn         1 5WL       0.299700
     37 H6           4.0750     5.8310    -3.6600 ha         1 5WL       0.144000
     38 H7           3.1700     9.3610    -1.4320 ha         1 5WL       0.148000
     39 H8           2.1310     8.0250     0.3300 ha         1 5WL       0.143000
     40 H9           0.6040     4.4980     1.6490 hc         1 5WL       0.062700
     41 H10          0.7920     6.2510     1.4970 hc         1 5WL       0.062700
     42 H11          2.8620     4.3430     2.6460 hc         1 5WL       0.062200
     43 H12          3.0500     6.0960     2.4950 hc         1 5WL       0.062200
     44 H13          1.0940     6.4320     3.9700 h1         1 5WL       0.038200
     45 H14          0.9070     4.6800     4.1220 h1         1 5WL       0.038200
     46 H15          4.7730     5.3430     6.2290 ha         1 5WL       0.146000
     47 H16          6.2510     5.3550     8.1690 ha         1 5WL       0.128000
     48 H17          5.3500     5.6470    10.4400 ha         1 5WL       0.127000
     49 H18          2.9550     5.9330    10.8070 ha         1 5WL       0.133000
     50 H19          0.6640     6.0960     9.8760 ha         1 5WL       0.132000
     51 H20         -0.8160     6.0930     7.9390 ha         1 5WL       0.126000
     52 H21          0.0770     5.8000     5.6660 ha         1 5WL       0.133000
@<TRIPOS>BOND
     1     1     2 1   
     2     4     2 2   
     3     3     2 2   
     4     2     5 1   
     5     5     6 1   
     6     7     6 2   
     7     6     8 1   
     8     8     9 1   
     9     8    17 2   
    10     9    10 1   
    11    18    17 1   
    12    18    19 1   
    13    17    16 1   
    14    19    20 1   
    15    10    16 ar  
    16    10    11 ar  
    17    16    15 ar  
    18    20    21 1   
    19    11    12 ar  
    20    21    22 1   
    21    15    14 ar  
    22    12    14 ar  
    23    12    13 1   
    24    24    25 ar  
    25    24    23 ar  
    26    22    23 ar  
    27    22    31 ar  
    28    25    26 ar  
    29    23    28 ar  
    30    31    30 ar  
    31    26    27 ar  
    32    28    27 ar  
    33    28    29 ar  
    34    30    29 ar  
    35     1    32 1   
    36     1    33 1   
    37     1    34 1   
    38     5    35 1   
    39     9    36 1   
    40    11    37 1   
    41    14    38 1   
    42    15    39 1   
    43    18    40 1   
    44    18    41 1   
    45    19    42 1   
    46    19    43 1   
    47    20    44 1   
    48    20    45 1   
    49    24    46 1   
    50    25    47 1   
    51    26    48 1   
    52    27    49 1   
    53    29    50 1   
    54    30    51 1   
    55    31    52 1   
@<TRIPOS>SUBSTRUCTURE
     1 5WL         1 TEMP              0 ****  ****    0 ROOT
