@<TRIPOS>MOLECULE
5WM
   28    29     1     0     0
SMALL
bcc


@<TRIPOS>ATOM
      1 O1           0.0000     0.0000     0.0000 o          1 5WM      -0.489300
      2 O2           2.1980     0.9990    -0.6470 o          1 5WM      -0.489300
      3 C1           1.2900    -2.6960    -0.1660 c3         1 5WM       0.254000
      4 C2           1.5930    -3.8080    -1.1370 ce         1 5WM      -0.001400
      5 C3           0.7400    -4.0180    -2.3140 ca         1 5WM      -0.093800
      6 C4          -0.4040    -3.2980    -2.7130 ca         1 5WM      -0.070000
      7 C5          -1.0840    -3.6410    -3.8580 ca         1 5WM      -0.059000
      8 C6          -0.6630    -4.6970    -4.6470 ca         1 5WM      -0.071000
      9 C7           0.4600    -5.4200    -4.2730 ca         1 5WM       0.046000
     10 C8           1.1380    -5.0820    -3.1350 ca         1 5WM      -0.087500
     11 C9           2.6310    -4.6020    -0.9420 cf         1 5WM      -0.106100
     12 S1           1.4210     0.0000     0.0000 s6         1 5WM       1.008800
     13 N1           1.8890     0.0000     1.5880 nz         1 5WM      -0.155500
     14 N2           1.8890    -1.4490    -0.6500 n7         1 5WM      -0.552100
     15 S2           2.5780    -5.7250    -2.3230 sy         1 5WM       0.923200
     16 O3           3.7010    -5.4460    -3.1500 o          1 5WM      -0.549300
     17 O4           2.2530    -7.0140    -1.8230 o          1 5WM      -0.549300
     18 H1           1.7030    -2.9410     0.8050 h1         1 5WM       0.024700
     19 H2           0.2170    -2.5720    -0.0810 h1         1 5WM       0.024700
     20 H3          -0.7520    -2.4670    -2.1110 ha         1 5WM       0.101000
     21 H4          -1.9610    -3.0750    -4.1470 ha         1 5WM       0.116000
     22 H5          -1.2070    -4.9580    -5.5470 ha         1 5WM       0.124000
     23 H6           0.8000    -6.2490    -4.8810 ha         1 5WM       0.122000
     24 H7           2.8480    -4.9750     0.0520 h4         1 5WM       0.170000
     25 H8           1.7730     0.9180     1.9700 hn         1 5WM       0.319467
     26 H9           1.3270    -0.6490     2.1020 hn         1 5WM       0.319467
     27 H10          2.6030    -1.4760    -1.3500 hn         1 5WM       0.401800
     28 H13          2.8610    -0.2320     1.6500 hn         1 5WM       0.319467
@<TRIPOS>BOND
     1     1    12 2   
     2     2    12 2   
     3     3     4 1   
     4     3    14 1   
     5     3    18 1   
     6     3    19 1   
     7     4     5 1   
     8     4    11 2   
     9     5     6 ar  
    10     5    10 ar  
    11     6     7 ar  
    12     6    20 1   
    13     7     8 ar  
    14     7    21 1   
    15     8     9 ar  
    16     8    22 1   
    17     9    10 ar  
    18     9    23 1   
    19    10    15 1   
    20    11    15 1   
    21    11    24 1   
    22    12    13 1   
    23    12    14 1   
    24    13    25 1   
    25    13    26 1   
    26    13    28 1   
    27    14    27 1   
    28    15    16 2   
    29    15    17 2   
@<TRIPOS>SUBSTRUCTURE
     1 5WM         1 TEMP              0 ****  ****    0 ROOT
