@<TRIPOS>MOLECULE
molecule
   28    29     1     0     0
SMALL
bcc


@<TRIPOS>ATOM
      1 O1           0.0000     0.0000     0.0000 o          1 5WM      -0.519300
      2 O2           2.1980     0.9990    -0.6470 o          1 5WM      -0.519300
      3 C1           1.2900    -2.6960    -0.1660 c3         1 5WM       0.252000
      4 C2           1.5930    -3.8080    -1.1370 ce         1 5WM       0.001600
      5 C3           0.7400    -4.0180    -2.3140 ca         1 5WM      -0.094800
      6 C4          -0.4040    -3.2980    -2.7130 ca         1 5WM      -0.089000
      7 C5          -1.0840    -3.6410    -3.8580 ca         1 5WM      -0.086000
      8 C6          -0.6630    -4.6970    -4.6470 ca         1 5WM      -0.097000
      9 C7           0.4600    -5.4200    -4.2730 ca         1 5WM       0.009000
     10 C8           1.1380    -5.0820    -3.1350 ca         1 5WM      -0.232500
     11 C9           2.6310    -4.6020    -0.9420 cf         1 5WM      -0.280100
     12 S1           1.4210     0.0000     0.0000 s6         1 5WM       1.358800
     13 N1           1.8890     0.0000     1.5880 nz         1 5WM      -0.820500
     14 N2           1.8890    -1.4490    -0.6500 n7         1 5WM      -0.881100
     15 S2           2.5780    -5.7250    -2.3230 sy         1 5WM       1.235200
     16 O3           3.7010    -5.4460    -3.1500 o          1 5WM      -0.577300
     17 O4           2.2530    -7.0140    -1.8230 o          1 5WM      -0.577300
     18 H1           1.7030    -2.9410     0.8050 h1         1 5WM       0.062200
     19 H2           0.2170    -2.5720    -0.0810 h1         1 5WM       0.062200
     20 H3          -0.7520    -2.4670    -2.1110 ha         1 5WM       0.130000
     21 H4          -1.9610    -3.0750    -4.1470 ha         1 5WM       0.152000
     22 H5          -1.2070    -4.9580    -5.5470 ha         1 5WM       0.160000
     23 H6           0.8000    -6.2490    -4.8810 ha         1 5WM       0.159000
     24 H7           2.8480    -4.9750     0.0520 h4         1 5WM       0.202000
     25 H8           1.7730     0.9180     1.9700 hn         1 5WM       0.495467
     26 H9           1.3270    -0.6490     2.1020 hn         1 5WM       0.495467
     27 H10          2.6030    -1.4760    -1.3500 hn         1 5WM       0.503800
     28 H13          2.8610    -0.2320     1.6500 hn         1 5WM       0.495467
@<TRIPOS>BOND
     1     8     9 ar  
     2     8     7 ar  
     3     9    10 ar  
     4    17    15 2   
     5     7     6 ar  
     6    10    15 1   
     7    10     5 ar  
     8     6     5 ar  
     9    15    16 2   
    10    15    11 1   
    11     5     4 1   
    12     4    11 2   
    13     4     3 1   
    14     3    14 1   
    15    14    12 1   
    16    13    12 1   
    17     1    12 2   
    18    12     2 2   
    19     3    18 1   
    20     3    19 1   
    21     6    20 1   
    22     7    21 1   
    23     8    22 1   
    24     9    23 1   
    25    11    24 1   
    26    13    25 1   
    27    13    26 1   
    28    14    27 1   
    29    28    13 1   
@<TRIPOS>SUBSTRUCTURE
     1 5WM         1 TEMP              0 ****  ****    0 ROOT
