@<TRIPOS>MOLECULE
molecule
   26    27     1     0     0
SMALL
bcc


@<TRIPOS>ATOM
      1 S1           0.0000     0.0000     0.0000 s6         1 5WN       1.349800
      2 O1           1.4210     0.0000     0.0000 o          1 5WN      -0.525300
      3 O2          -0.7780     0.0000     1.1890 o          1 5WN      -0.525300
      4 N1          -0.4660     1.3350    -0.8630 nz         1 5WN      -0.817500
      5 N2          -0.4680    -1.3320    -0.8650 n7         1 5WN      -0.885100
      6 S2           0.0490    -5.5250    -3.0100 ss         1 5WN      -0.004500
      7 C1           0.7030    -3.9990    -2.4460 cc         1 5WN      -0.043400
      8 C2          -0.1700    -3.0220    -2.5800 cd         1 5WN      -0.145400
      9 C3          -1.4480    -3.4170    -3.1510 ca         1 5WN      -0.082800
     10 C4          -1.4860    -4.7830    -3.4460 ca         1 5WN      -0.020100
     11 C5          -2.5880    -2.6300    -3.4260 ca         1 5WN      -0.117000
     12 C6          -3.7010    -3.1940    -3.9680 ca         1 5WN      -0.108000
     13 C7          -3.7360    -4.5520    -4.2590 ca         1 5WN      -0.105000
     14 C8          -2.6400    -5.3420    -4.0030 ca         1 5WN      -0.075000
     15 C9           0.1320    -1.6030    -2.1740 c3         1 5WN       0.282000
     16 H1          -1.4360     1.2570    -1.1000 hn         1 5WN       0.493133
     17 H2          -0.3230     2.1560    -0.3100 hn         1 5WN       0.493133
     18 H3          -1.1310    -1.9730    -0.4760 hn         1 5WN       0.502800
     19 H5          -2.5750    -1.5700    -3.2050 ha         1 5WN       0.103000
     20 H6          -4.5680    -2.5790    -4.1730 ha         1 5WN       0.141000
     21 H7          -4.6280    -4.9890    -4.6900 ha         1 5WN       0.152000
     22 H8          -2.6720    -6.4000    -4.2310 ha         1 5WN       0.152000
     23 H9           1.2050    -1.4640    -2.1150 h1         1 5WN       0.054700
     24 H10         -0.2810    -0.9210    -2.9080 h1         1 5WN       0.054700
     25 H13          0.0750     1.3950    -1.7030 hn         1 5WN       0.493133
     26 H4           1.7000    -3.8760    -2.0400 h4         1 5WN       0.181000
@<TRIPOS>BOND
     1    13    14 ar  
     2    13    12 ar  
     3    14    10 ar  
     4    12    11 ar  
     5    10     6 1   
     6    10     9 ar  
     7    11     9 ar  
     8     6     7 1   
     9     9     8 1   
    10     7     8 2   
    11     8    15 1   
    12    15     5 1   
    13     5     1 1   
    14     4     1 1   
    15     2     1 2   
    16     1     3 2   
    17     4    16 1   
    18     4    17 1   
    19     5    18 1   
    20     7    26 1   
    21    11    19 1   
    22    12    20 1   
    23    13    21 1   
    24    14    22 1   
    25    15    23 1   
    26    15    24 1   
    27    25     4 1   
@<TRIPOS>SUBSTRUCTURE
     1 5WN         1 TEMP              0 ****  ****    0 ROOT
