@<TRIPOS>MOLECULE
5WN
   26    27     1     0     0
SMALL
bcc


@<TRIPOS>ATOM
      1 S1           0.0000     0.0000     0.0000 s6         1 5WN       0.999800
      2 O1           1.4210     0.0000     0.0000 o          1 5WN      -0.493300
      3 O2          -0.7780     0.0000     1.1890 o          1 5WN      -0.493300
      4 N1          -0.4660     1.3350    -0.8630 nz         1 5WN      -0.152500
      5 N2          -0.4680    -1.3320    -0.8650 n7         1 5WN      -0.564100
      6 S2           0.0490    -5.5250    -3.0100 ss         1 5WN      -0.140500
      7 C1           0.7030    -3.9990    -2.4460 cc         1 5WN       0.048600
      8 C2          -0.1700    -3.0220    -2.5800 cd         1 5WN      -0.158400
      9 C3          -1.4480    -3.4170    -3.1510 ca         1 5WN      -0.082800
     10 C4          -1.4860    -4.7830    -3.4460 ca         1 5WN       0.028900
     11 C5          -2.5880    -2.6300    -3.4260 ca         1 5WN      -0.089000
     12 C6          -3.7010    -3.1940    -3.9680 ca         1 5WN      -0.076000
     13 C7          -3.7360    -4.5520    -4.2590 ca         1 5WN      -0.075000
     14 C8          -2.6400    -5.3420    -4.0030 ca         1 5WN      -0.034000
     15 C9           0.1320    -1.6030    -2.1740 c3         1 5WN       0.299000
     16 H1          -1.4360     1.2570    -1.1000 hn         1 5WN       0.317467
     17 H2          -0.3230     2.1560    -0.3100 hn         1 5WN       0.317467
     18 H3          -1.1310    -1.9730    -0.4760 hn         1 5WN       0.402800
     19 H5          -2.5750    -1.5700    -3.2050 ha         1 5WN       0.077000
     20 H6          -4.5680    -2.5790    -4.1730 ha         1 5WN       0.111000
     21 H7          -4.6280    -4.9890    -4.6900 ha         1 5WN       0.120000
     22 H8          -2.6720    -6.4000    -4.2310 ha         1 5WN       0.123000
     23 H9           1.2050    -1.4640    -2.1150 h1         1 5WN       0.019200
     24 H10         -0.2810    -0.9210    -2.9080 h1         1 5WN       0.019200
     25 H13          0.0750     1.3950    -1.7030 hn         1 5WN       0.317467
     26 H4           1.7000    -3.8760    -2.0400 h4         1 5WN       0.155000
@<TRIPOS>BOND
     1     1     2 2   
     2     1     3 2   
     3     1     4 1   
     4     1     5 1   
     5     4    16 1   
     6     4    17 1   
     7     4    25 1   
     8     5    15 1   
     9     5    18 1   
    10     6     7 1   
    11     6    10 1   
    12     7     8 2   
    13     7    26 1   
    14     8     9 1   
    15     8    15 1   
    16     9    10 ar  
    17     9    11 ar  
    18    10    14 ar  
    19    11    12 ar  
    20    11    19 1   
    21    12    13 ar  
    22    12    20 1   
    23    13    14 ar  
    24    13    21 1   
    25    14    22 1   
    26    15    23 1   
    27    15    24 1   
@<TRIPOS>SUBSTRUCTURE
     1 5WN         1 TEMP              0 ****  ****    0 ROOT
