@<TRIPOS>MOLECULE
molecule
   45    49     1     0     0
SMALL
bcc


@<TRIPOS>ATOM
      1 C4           0.0000     0.0000     0.0000 ca         1 5WO       0.639300
      2 C5           1.4060     0.0000     0.0000 ca         1 5WO      -0.399800
      3 C6           2.0750     0.0000     1.2240 ca         1 5WO       0.611200
      4 C8           0.6570    -0.0000    -2.0670 cc         1 5WO       0.456700
      5 N1           1.3530    -0.0000     2.3410 nb         1 5WO      -0.730000
      6 N3          -0.6400     0.0010     1.1730 nb         1 5WO      -0.717000
      7 C2           0.0330     0.0010     2.3020 ca         1 5WO       0.704900
      8 N6           3.4630    -0.0010     1.2750 ns         1 5WO      -0.552400
      9 N7           1.7880    -0.0010    -1.3250 na         1 5WO      -0.255300
     10 N9          -0.3900     0.0040    -1.2890 nd         1 5WO      -0.668700
     11 H1           0.6260    -0.0030    -3.1500 h5         1 5WO       0.081800
     12 H2          -0.5160     0.0000     3.2360 h5         1 5WO       0.071100
     13 H3           3.9950     0.0100     0.4280 hn         1 5WO       0.325500
     14 H5           2.7260    -0.0040    -1.6730 hn         1 5WO       0.299700
     15 C3           5.5710    -0.0020     2.5200 ca         1 5WO      -0.146600
     16 C7           6.2250    -0.0030     3.7510 ca         1 5WO      -0.055000
     17 C10          8.3470    -0.0040     2.6070 ca         1 5WO      -0.094000
     18 C11          7.6940    -0.0150     1.3900 ca         1 5WO      -0.132000
     19 C12          6.3140    -0.0080     1.3390 ca         1 5WO      -0.109000
     20 C13          4.0930    -0.0020     2.4660 c          1 5WO       0.663700
     21 H7           5.6530    -0.0000     4.6710 ha         1 5WO       0.164000
     22 H9           9.4290    -0.0060     2.6390 ha         1 5WO       0.138000
     23 H10          8.2680    -0.0190     0.4700 ha         1 5WO       0.136000
     24 H11          5.8080    -0.0120     0.3810 ha         1 5WO       0.117000
     25 C1           8.3190    -0.0040     5.1010 cp         1 5WO      -0.015000
     26 C14          9.7100    -0.0040     5.1440 ca         1 5WO      -0.147000
     27 C16          9.6270    -0.0040     7.5450 ca         1 5WO      -0.150000
     28 C17          8.2460     0.0090     7.5020 ca         1 5WO      -0.098000
     29 C18          7.5880     0.0030     6.2880 ca         1 5WO      -0.133000
     30 C19          7.6150    -0.0030     3.7940 cp         1 5WO      -0.040000
     31 N2          11.7640    -0.0040     6.4160 na         1 5WO       0.028800
     32 C9          12.5210    -0.0050     7.5510 cc         1 5WO      -0.156300
     33 C20         13.8200    -0.0070     7.1920 cd         1 5WO      -0.196000
     34 C21         13.8690    -0.0070     5.7830 cd         1 5WO      -0.196000
     35 C22         12.5970    -0.0120     5.3350 cc         1 5WO      -0.156300
     36 C23         10.3620    -0.0040     6.3670 ca         1 5WO       0.025800
     37 H12         10.2820    -0.0060     4.2230 ha         1 5WO       0.141000
     38 H13         10.1370    -0.0010     8.5010 ha         1 5WO       0.141000
     39 H14          7.6770     0.0120     8.4240 ha         1 5WO       0.141000
     40 H15          6.5050     0.0080     6.2580 ha         1 5WO       0.144000
     41 H8          14.6710    -0.0060     7.8630 ha         1 5WO       0.150500
     42 H17         14.7640    -0.0100     5.1730 ha         1 5WO       0.150500
     43 H18         12.2900    -0.0140     4.2960 h4         1 5WO       0.165500
     44 H20         12.1430    -0.0020     8.5660 h4         1 5WO       0.165500
     45 O1           3.4480    -0.0010     3.4960 o          1 5WO      -0.518100
@<TRIPOS>BOND
     1     8     3 1
     2     3     5 ar
     3     3     2 ar
     4     5     7 ar
     5     9     2 1
     6     9     4 1
     7     2     1 ar
     8     4    10 2
     9     7     6 ar
    10     1     6 ar
    11     1    10 1
    12     4    11 1
    13     7    12 1
    14     8    13 1
    15     9    14 1
    16     8    20 1
    17    15    16 ar
    18    16    30 ar
    19    30    17 ar
    20    17    18 ar
    21    18    19 ar
    22    19    15 ar
    23    15    20 1
    24    16    21 1
    25    17    22 1
    26    18    23 1
    27    19    24 1
    28    25    26 ar
    29    26    36 ar
    30    36    27 ar
    31    27    28 ar
    32    28    29 ar
    33    29    25 ar
    34    25    30 1
    35    31    32 1
    36    32    33 2
    37    33    34 1
    38    34    35 2
    39    35    31 1
    40    31    36 1
    41    26    37 1
    42    27    38 1
    43    28    39 1
    44    29    40 1
    45    33    41 1
    46    34    42 1
    47    35    43 1
    48    32    44 1
    49    20    45 2
@<TRIPOS>SUBSTRUCTURE
     1 5WO         1 TEMP              0 ****  ****    0 ROOT
