@<TRIPOS>MOLECULE
5WO
   45    49     1     0     0
SMALL
bcc


@<TRIPOS>ATOM
      1 C4           0.0000     0.0000     0.0000 ca         1 5WO       0.555300
      2 C5           1.4060     0.0000     0.0000 ca         1 5WO      -0.573800
      3 C6           2.0750     0.0000     1.2240 ca         1 5WO       0.427200
      4 C8           0.6570    -0.0000    -2.0670 cc         1 5WO       0.260700
      5 N1           1.3530    -0.0000     2.3410 nb         1 5WO      -0.610000
      6 N3          -0.6400     0.0010     1.1730 nb         1 5WO      -0.591000
      7 C2           0.0330     0.0010     2.3020 ca         1 5WO       0.640900
      8 N6           3.4630    -0.0010     1.2750 ns         1 5WO      -0.118400
      9 N7           1.7880    -0.0010    -1.3250 na         1 5WO       0.285700
     10 N9          -0.3900     0.0040    -1.2890 nd         1 5WO      -0.580700
     11 H1           0.6260    -0.0030    -3.1500 h5         1 5WO       0.031800
     12 H2          -0.5160     0.0000     3.2360 h5         1 5WO       0.004100
     13 H3           3.9950     0.0100     0.4280 hn         1 5WO       0.167500
     14 H5           2.7260    -0.0040    -1.6730 hn         1 5WO       0.122700
     15 C3           5.5710    -0.0020     2.5200 ca         1 5WO      -0.157600
     16 C7           6.2250    -0.0030     3.7510 ca         1 5WO      -0.028000
     17 C10          8.3470    -0.0040     2.6070 ca         1 5WO      -0.074000
     18 C11          7.6940    -0.0150     1.3900 ca         1 5WO      -0.101000
     19 C12          6.3140    -0.0080     1.3390 ca         1 5WO      -0.089000
     20 C13          4.0930    -0.0020     2.4660 c          1 5WO       0.570700
     21 H7           5.6530    -0.0000     4.6710 ha         1 5WO       0.138000
     22 H9           9.4290    -0.0060     2.6390 ha         1 5WO       0.113000
     23 H10          8.2680    -0.0190     0.4700 ha         1 5WO       0.107000
     24 H11          5.8080    -0.0120     0.3810 ha         1 5WO       0.093000
     25 C1           8.3190    -0.0040     5.1010 cp         1 5WO      -0.012000
     26 C14          9.7100    -0.0040     5.1440 ca         1 5WO      -0.120000
     27 C16          9.6270    -0.0040     7.5450 ca         1 5WO      -0.117000
     28 C17          8.2460     0.0090     7.5020 ca         1 5WO      -0.070000
     29 C18          7.5880     0.0030     6.2880 ca         1 5WO      -0.104000
     30 C19          7.6150    -0.0030     3.7940 cp         1 5WO      -0.039000
     31 N2          11.7640    -0.0040     6.4160 na         1 5WO       0.572800
     32 C9          12.5210    -0.0050     7.5510 cc         1 5WO      -0.339800
     33 C20         13.8200    -0.0070     7.1920 cd         1 5WO      -0.161500
     34 C21         13.8690    -0.0070     5.7830 cd         1 5WO      -0.161500
     35 C22         12.5970    -0.0120     5.3350 cc         1 5WO      -0.339800
     36 C23         10.3620    -0.0040     6.3670 ca         1 5WO      -0.160200
     37 H12         10.2820    -0.0060     4.2230 ha         1 5WO       0.126000
     38 H13         10.1370    -0.0010     8.5010 ha         1 5WO       0.119000
     39 H14          7.6770     0.0120     8.4240 ha         1 5WO       0.109000
     40 H15          6.5050     0.0080     6.2580 ha         1 5WO       0.122000
     41 H8          14.6710    -0.0060     7.8630 ha         1 5WO       0.124500
     42 H17         14.7640    -0.0100     5.1730 ha         1 5WO       0.124500
     43 H18         12.2900    -0.0140     4.2960 h4         1 5WO       0.146500
     44 H20         12.1430    -0.0020     8.5660 h4         1 5WO       0.146500
     45 O1           3.4480    -0.0010     3.4960 o          1 5WO      -0.557100
@<TRIPOS>BOND
     1     1     2 ar  
     2     1     6 ar  
     3     1    10 1   
     4     2     3 ar  
     5     2     9 1   
     6     3     5 ar  
     7     3     8 1   
     8     4     9 1   
     9     4    10 2   
    10     4    11 1   
    11     5     7 ar  
    12     6     7 ar  
    13     7    12 1   
    14     8    13 1   
    15     8    20 1   
    16     9    14 1   
    17    15    16 ar  
    18    15    19 ar  
    19    15    20 1   
    20    16    21 1   
    21    16    30 ar  
    22    17    18 ar  
    23    17    22 1   
    24    17    30 ar  
    25    18    19 ar  
    26    18    23 1   
    27    19    24 1   
    28    20    45 2   
    29    25    26 ar  
    30    25    29 ar  
    31    25    30 1   
    32    26    36 ar  
    33    26    37 1   
    34    27    28 ar  
    35    27    36 ar  
    36    27    38 1   
    37    28    29 ar  
    38    28    39 1   
    39    29    40 1   
    40    31    32 1   
    41    31    35 1   
    42    31    36 1   
    43    32    33 2   
    44    32    44 1   
    45    33    34 1   
    46    33    41 1   
    47    34    35 2   
    48    34    42 1   
    49    35    43 1   
@<TRIPOS>SUBSTRUCTURE
     1 5WO         1 TEMP              0 ****  ****    0 ROOT
