@<TRIPOS>MOLECULE
molecule
   69    73     1     0     0
SMALL
bcc


@<TRIPOS>ATOM
      1 CAA          0.0000     0.0000     0.0000 ca         1 5WR       0.418700
      2 CAC          0.0190     0.0050     2.2970 ca         1 5WR       0.650900
      3 CAE          2.0510     0.0000     1.2270 ca         1 5WR       0.418700
      4 CAF          1.3920     0.0000     0.0000 ca         1 5WR      -0.150000
      5 CAH          3.0180    -1.1490    -1.2670 c3         1 5WR       0.215100
      6 CAI          3.7130    -1.1940    -2.6030 ca         1 5WR      -0.093300
      7 CAJ          3.2390    -0.4930    -3.6950 ca         1 5WR      -0.035300
      8 CAK          2.0050     0.3680    -3.6040 c3         1 5WR      -0.027400
      9 CAL          1.2010    -0.0000    -2.3570 c3         1 5WR       0.154800
     10 CAM          4.8550    -1.9680    -2.7230 ca         1 5WR      -0.059000
     11 CAN          5.5280    -2.0410    -3.9420 ca         1 5WR      -0.150600
     12 CAO          5.0430    -1.3300    -5.0410 ca         1 5WR      -0.102000
     13 CAP          3.9050    -0.5650    -4.9110 ca         1 5WR      -0.132000
     14 CAQ          6.7490    -2.8640    -4.0690 c          1 5WR       0.676700
     15 CAS          8.6040    -3.6330    -5.3450 ca         1 5WR       0.050600
     16 CAT          9.6090    -3.1750    -6.1870 ca         1 5WR      -0.120000
     17 CAU         10.8020    -3.8650    -6.2740 ca         1 5WR      -0.165300
     18 CAV         10.9960    -5.0110    -5.5270 ca         1 5WR      -0.096000
     19 CAW          9.9960    -5.4710    -4.6880 ca         1 5WR      -0.068300
     20 CAX          8.8020    -4.7850    -4.5940 ca         1 5WR      -0.081000
     21 CAY         11.8930    -3.3680    -7.1880 c3         1 5WR       0.675200
     22 CAZ         10.2120    -6.7210    -3.8750 c3         1 5WR       0.211100
     23 NAB         -0.6420     0.0060     1.1570 nb         1 5WR      -0.714500
     24 NAD          1.3360     0.0010     2.3390 nb         1 5WR      -0.714500
     25 NAG          2.1100    -0.0010    -1.1990 nh         1 5WR      -0.583000
     26 NAR          7.3970    -2.9330    -5.2490 ns         1 5WR      -0.475100
     27 CBB         10.8060    -7.5210    -1.6670 c3         1 5WR       0.160800
     28 CBC         11.3520    -7.0910    -0.3030 c3         1 5WR       0.164300
     29 CBE         12.7010    -5.3940    -1.3790 c3         1 5WR       0.164300
     30 CBF         12.1550    -5.8240    -2.7430 c3         1 5WR       0.160800
     31 CBI          2.4160     1.8400    -3.5260 c3         1 5WR      -0.078100
     32 NBA         10.8000    -6.3660    -2.5760 n3         1 5WR      -0.723600
     33 NBD         12.7070    -6.5480    -0.4700 n3         1 5WR      -0.735600
     34 OBH          7.1690    -3.4810    -3.1080 o          1 5WR      -0.589100
     35 F01         12.1860    -4.3500    -8.1410 f          1 5WR      -0.223967
     36 F02         11.4660    -2.2030    -7.8340 f          1 5WR      -0.223967
     37 F03         13.0400    -3.0920    -6.4360 f          1 5WR      -0.223967
     38 H1          -0.5500     0.0000    -0.9340 h4         1 5WR       0.035600
     39 H2          -0.5370     0.0080     3.2270 h5         1 5WR       0.062100
     40 H3           3.1340    -0.0020     1.2700 h4         1 5WR       0.035600
     41 H4           3.7680    -1.0430    -0.4920 h1         1 5WR       0.059200
     42 H5           2.4380    -2.0560    -1.1490 h1         1 5WR       0.059200
     43 H6           1.3930     0.2080    -4.4830 hc         1 5WR       0.062700
     44 H7           0.4310     0.7460    -2.2000 h1         1 5WR       0.052200
     45 H8           0.7910    -0.9950    -2.4830 h1         1 5WR       0.052200
     46 H9           5.2270    -2.5170    -1.8670 ha         1 5WR       0.160000
     47 H10          5.5580    -1.3800    -5.9930 ha         1 5WR       0.126000
     48 H11          3.5280    -0.0130    -5.7630 ha         1 5WR       0.138000
     49 H12          9.4570    -2.2760    -6.7730 ha         1 5WR       0.148000
     50 H13         11.9320    -5.5510    -5.5980 ha         1 5WR       0.144000
     51 H14          8.0200    -5.1450    -3.9370 ha         1 5WR       0.176000
     52 H15         10.8830    -7.3850    -4.4060 h1         1 5WR       0.043200
     53 H16          9.2620    -7.2180    -3.7180 h1         1 5WR       0.043200
     54 H17          7.0060    -2.4970    -6.0610 hn         1 5WR       0.328500
     55 H19          9.7940    -7.8910    -1.5500 h1         1 5WR       0.041700
     56 H20         10.7080    -6.3280     0.1180 h1         1 5WR       0.042450
     57 H21         11.3860    -7.9480     0.3580 h1         1 5WR       0.042450
     58 H22         12.0700    -4.6150    -0.9680 h1         1 5WR       0.042450
     59 H23         13.7120    -5.0230    -1.4970 h1         1 5WR       0.042450
     60 H24         12.7990    -6.5870    -3.1650 h1         1 5WR       0.041700
     61 H25         12.1210    -4.9660    -3.4040 h1         1 5WR       0.041700
     62 H26         13.3230    -7.0690     1.4640 h1         1 5WR       0.031700
     63 H27         14.3020    -5.8220     0.6800 h1         1 5WR       0.031700
     64 H28         12.6940    -5.4240     1.3000 h1         1 5WR       0.031700
     65 H29          3.2540     1.9450    -2.8470 hc         1 5WR       0.043367
     66 H30          1.5820     2.4290    -3.1650 hc         1 5WR       0.043367
     67 H31          2.7050     2.1870    -4.5110 hc         1 5WR       0.043367
     68 H18         11.4360    -8.2990    -2.0780 h1         1 5WR       0.041700
     69 CBG         13.2950    -6.1930     0.8290 c3         1 5WR       0.153100
@<TRIPOS>BOND
     1    31     8 1   
     2    24     2 ar  
     3    24     3 ar  
     4     2    23 ar  
     5     3     4 ar  
     6    23     1 ar  
     7     8     9 1   
     8     8     7 1   
     9     9    25 1   
    10     4     1 ar  
    11     4    25 1   
    12    25     5 1   
    13     7    13 ar  
    14     7     6 ar  
    15     5     6 1   
    16    13    12 ar  
    17     6    10 ar  
    18    12    11 ar  
    19    10    11 ar  
    20    11    14 1   
    21    14    26 1   
    22    14    34 2   
    23    26    15 1   
    24    15    20 ar  
    25    15    16 ar  
    26    20    19 ar  
    27    16    17 ar  
    28    37    21 1   
    29    19    22 1   
    30    19    18 ar  
    31    17    18 ar  
    32    17    21 1   
    33    27    28 1   
    34    27    32 1   
    35    22    32 1   
    36    21    36 1   
    37    21    35 1   
    38    28    33 1   
    39    32    30 1   
    40    30    29 1   
    41    33    29 1   
    42    33    69 1   
    43     1    38 1   
    44     2    39 1   
    45     3    40 1   
    46     5    41 1   
    47     5    42 1   
    48     8    43 1   
    49     9    44 1   
    50     9    45 1   
    51    10    46 1   
    52    12    47 1   
    53    13    48 1   
    54    16    49 1   
    55    18    50 1   
    56    20    51 1   
    57    22    52 1   
    58    22    53 1   
    59    26    54 1   
    60    27    68 1   
    61    27    55 1   
    62    28    56 1   
    63    28    57 1   
    64    29    58 1   
    65    29    59 1   
    66    30    60 1   
    67    30    61 1   
    68    69    62 1   
    69    69    63 1   
    70    69    64 1   
    71    31    65 1   
    72    31    66 1   
    73    31    67 1   
@<TRIPOS>SUBSTRUCTURE
     1 5WR         1 TEMP              0 ****  ****    0 ROOT
