@<TRIPOS>MOLECULE
5WR
   69    73     1     0     0
SMALL
bcc


@<TRIPOS>ATOM
      1 CAA          0.0000     0.0000     0.0000 ca         1 5WR       0.393700
      2 CAC          0.0190     0.0050     2.2970 ca         1 5WR       0.598900
      3 CAE          2.0510     0.0000     1.2270 ca         1 5WR       0.393700
      4 CAF          1.3920     0.0000     0.0000 ca         1 5WR      -0.221000
      5 CAH          3.0180    -1.1490    -1.2670 c3         1 5WR       0.204100
      6 CAI          3.7130    -1.1940    -2.6030 ca         1 5WR      -0.100300
      7 CAJ          3.2390    -0.4930    -3.6950 ca         1 5WR      -0.043300
      8 CAK          2.0050     0.3680    -3.6040 c3         1 5WR       0.006600
      9 CAL          1.2010    -0.0000    -2.3570 c3         1 5WR       0.120800
     10 CAM          4.8550    -1.9680    -2.7230 ca         1 5WR      -0.025000
     11 CAN          5.5280    -2.0410    -3.9420 ca         1 5WR      -0.164600
     12 CAO          5.0430    -1.3300    -5.0410 ca         1 5WR      -0.082000
     13 CAP          3.9050    -0.5650    -4.9110 ca         1 5WR      -0.103000
     14 CAQ          6.7490    -2.8640    -4.0690 c          1 5WR       0.588700
     15 CAS          8.6040    -3.6330    -5.3450 ca         1 5WR      -0.094400
     16 CAT          9.6090    -3.1750    -6.1870 ca         1 5WR      -0.083000
     17 CAU         10.8020    -3.8650    -6.2740 ca         1 5WR      -0.193300
     18 CAV         10.9960    -5.0110    -5.5270 ca         1 5WR      -0.056000
     19 CAW          9.9960    -5.4710    -4.6880 ca         1 5WR      -0.077300
     20 CAX          8.8020    -4.7850    -4.5940 ca         1 5WR      -0.052000
     21 CAY         11.8930    -3.3680    -7.1880 c3         1 5WR       0.641200
     22 CAZ         10.2120    -6.7210    -3.8750 c3         1 5WR       0.213100
     23 NAB         -0.6420     0.0060     1.1570 nb         1 5WR      -0.601000
     24 NAD          1.3360     0.0010     2.3390 nb         1 5WR      -0.601000
     25 NAG          2.1100    -0.0010    -1.1990 nh         1 5WR      -0.343000
     26 NAR          7.3970    -2.9330    -5.2490 ns         1 5WR      -0.036100
     27 CBB         10.8060    -7.5210    -1.6670 c3         1 5WR       0.145300
     28 CBC         11.3520    -7.0910    -0.3030 c3         1 5WR       0.155300
     29 CBE         12.7010    -5.3940    -1.3790 c3         1 5WR       0.155300
     30 CBF         12.1550    -5.8240    -2.7430 c3         1 5WR       0.145300
     31 CBI          2.4160     1.8400    -3.5260 c3         1 5WR       0.009900
     32 NBA         10.8000    -6.3660    -2.5760 n3         1 5WR      -0.533600
     33 NBD         12.7070    -6.5480    -0.4700 n3         1 5WR      -0.550600
     34 OBH          7.1690    -3.4810    -3.1080 o          1 5WR      -0.632100
     35 F01         12.1860    -4.3500    -8.1410 f          1 5WR      -0.208300
     36 F02         11.4660    -2.2030    -7.8340 f          1 5WR      -0.208300
     37 F03         13.0400    -3.0920    -6.4360 f          1 5WR      -0.208300
     38 H1          -0.5500     0.0000    -0.9340 h4         1 5WR      -0.000900
     39 H2          -0.5370     0.0080     3.2270 h5         1 5WR       0.002100
     40 H3           3.1340    -0.0020     1.2700 h4         1 5WR      -0.000900
     41 H4           3.7680    -1.0430    -0.4920 h1         1 5WR       0.029200
     42 H5           2.4380    -2.0560    -1.1490 h1         1 5WR       0.029200
     43 H6           1.3930     0.2080    -4.4830 hc         1 5WR       0.034700
     44 H7           0.4310     0.7460    -2.2000 h1         1 5WR       0.030200
     45 H8           0.7910    -0.9950    -2.4830 h1         1 5WR       0.030200
     46 H9           5.2270    -2.5170    -1.8670 ha         1 5WR       0.131000
     47 H10          5.5580    -1.3800    -5.9930 ha         1 5WR       0.101000
     48 H11          3.5280    -0.0130    -5.7630 ha         1 5WR       0.111000
     49 H12          9.4570    -2.2760    -6.7730 ha         1 5WR       0.122000
     50 H13         11.9320    -5.5510    -5.5980 ha         1 5WR       0.120000
     51 H14          8.0200    -5.1450    -3.9370 ha         1 5WR       0.154000
     52 H15         10.8830    -7.3850    -4.4060 h1         1 5WR       0.014700
     53 H16          9.2620    -7.2180    -3.7180 h1         1 5WR       0.014700
     54 H17          7.0060    -2.4970    -6.0610 hn         1 5WR       0.176500
     55 H19          9.7940    -7.8910    -1.5500 h1         1 5WR       0.016700
     56 H20         10.7080    -6.3280     0.1180 h1         1 5WR       0.015200
     57 H21         11.3860    -7.9480     0.3580 h1         1 5WR       0.015200
     58 H22         12.0700    -4.6150    -0.9680 h1         1 5WR       0.015200
     59 H23         13.7120    -5.0230    -1.4970 h1         1 5WR       0.015200
     60 H24         12.7990    -6.5870    -3.1650 h1         1 5WR       0.016700
     61 H25         12.1210    -4.9660    -3.4040 h1         1 5WR       0.016700
     62 H26         13.3230    -7.0690     1.4640 h1         1 5WR       0.000033
     63 H27         14.3020    -5.8220     0.6800 h1         1 5WR       0.000033
     64 H28         12.6940    -5.4240     1.3000 h1         1 5WR       0.000033
     65 H29          3.2540     1.9450    -2.8470 hc         1 5WR       0.010367
     66 H30          1.5820     2.4290    -3.1650 hc         1 5WR       0.010367
     67 H31          2.7050     2.1870    -4.5110 hc         1 5WR       0.010367
     68 H18         11.4360    -8.2990    -2.0780 h1         1 5WR       0.016700
     69 CBG         13.2950    -6.1930     0.8290 c3         1 5WR       0.189100
@<TRIPOS>BOND
     1     1     4 ar  
     2     1    23 ar  
     3     1    38 1   
     4     2    23 ar  
     5     2    24 ar  
     6     2    39 1   
     7     3     4 ar  
     8     3    24 ar  
     9     3    40 1   
    10     4    25 1   
    11     5     6 1   
    12     5    25 1   
    13     5    41 1   
    14     5    42 1   
    15     6     7 ar  
    16     6    10 ar  
    17     7     8 1   
    18     7    13 ar  
    19     8     9 1   
    20     8    31 1   
    21     8    43 1   
    22     9    25 1   
    23     9    44 1   
    24     9    45 1   
    25    10    11 ar  
    26    10    46 1   
    27    11    12 ar  
    28    11    14 1   
    29    12    13 ar  
    30    12    47 1   
    31    13    48 1   
    32    14    26 1   
    33    14    34 2   
    34    15    16 ar  
    35    15    20 ar  
    36    15    26 1   
    37    16    17 ar  
    38    16    49 1   
    39    17    18 ar  
    40    17    21 1   
    41    18    19 ar  
    42    18    50 1   
    43    19    20 ar  
    44    19    22 1   
    45    20    51 1   
    46    21    35 1   
    47    21    36 1   
    48    21    37 1   
    49    22    32 1   
    50    22    52 1   
    51    22    53 1   
    52    26    54 1   
    53    27    28 1   
    54    27    32 1   
    55    27    55 1   
    56    27    68 1   
    57    28    33 1   
    58    28    56 1   
    59    28    57 1   
    60    29    30 1   
    61    29    33 1   
    62    29    58 1   
    63    29    59 1   
    64    30    32 1   
    65    30    60 1   
    66    30    61 1   
    67    31    65 1   
    68    31    66 1   
    69    31    67 1   
    70    33    69 1   
    71    62    69 1   
    72    63    69 1   
    73    64    69 1   
@<TRIPOS>SUBSTRUCTURE
     1 5WR         1 TEMP              0 ****  ****    0 ROOT
