@<TRIPOS>MOLECULE
5WS
   32    33     1     0     0
SMALL
bcc


@<TRIPOS>ATOM
      1 CAA          0.0000     0.0000     0.0000 c3         1 5WS       0.052100
      2 CAL          1.5070     0.0000     0.0000 cc         1 5WS      -0.002400
      3 CAI          2.1940     0.0000     1.1690 cd         1 5WS      -0.219200
      4 CAN          3.6030    -0.0010     1.1670 c          1 5WS       0.603700
      5 OAD          4.2050    -0.0010     2.2270 o          1 5WS      -0.692500
      6 NAQ          4.2960    -0.0010     0.0120 n          1 5WS       0.087000
      7 CAB          5.7610    -0.0030     0.0410 c3         1 5WS       0.033300
      8 CAP          3.6330    -0.0010    -1.1990 ca         1 5WS      -0.046400
      9 CAJ          4.3400    -0.0010    -2.3930 ca         1 5WS      -0.146000
     10 CAO          2.2250    -0.0060    -1.2240 ca         1 5WS      -0.122800
     11 CAH          1.5490    -0.0050    -2.4530 ca         1 5WS      -0.041000
     12 CAG          2.2570    -0.0000    -3.6170 ca         1 5WS      -0.159000
     13 CAM          3.6540    -0.0010    -3.5970 ca         1 5WS       0.091600
     14 NAK          4.3610    -0.0020    -4.7960 nu         1 5WS      -0.438500
     15 SAR          5.0950    -1.3890    -5.3240 s6         1 5WS       0.951900
     16 OAE          5.6970    -1.0200    -6.5580 o          1 5WS      -0.581800
     17 OAF          5.8850    -1.8090    -4.2200 o          1 5WS      -0.581800
     18 CAC          3.7270    -2.5470    -5.6050 c3         1 5WS       0.014700
     19 H1          -0.3610    -0.8860    -0.5080 hc         1 5WS       0.014367
     20 H2          -0.3610     0.8830    -0.5130 hc         1 5WS       0.014367
     21 H3          -0.3610     0.0030     1.0210 hc         1 5WS       0.014367
     22 H4           1.6560     0.0000     2.1090 ha         1 5WS       0.138000
     23 H5           6.1330     0.8740    -0.4750 h1         1 5WS       0.032367
     24 H6           6.1020     0.0110     1.0690 h1         1 5WS       0.032367
     25 H7           6.1300    -0.8950    -0.4500 h1         1 5WS       0.032367
     26 H8           5.4230    -0.0020    -2.3840 ha         1 5WS       0.148000
     27 H9           0.4660    -0.0040    -2.4760 ha         1 5WS       0.113000
     28 H10          1.7330     0.0000    -4.5650 ha         1 5WS       0.109000
     29 H11          4.4420     0.8410    -5.3300 hn         1 5WS       0.355800
     30 H12          2.9210    -2.0360    -6.1180 h1         1 5WS       0.064367
     31 H13          3.3690    -2.9200    -4.6530 h1         1 5WS       0.064367
     32 H14          4.0730    -3.3760    -6.2100 h1         1 5WS       0.064367
@<TRIPOS>BOND
     1     1     2 1   
     2     1    19 1   
     3     1    20 1   
     4     1    21 1   
     5     2     3 2   
     6     2    10 1   
     7     3     4 1   
     8     3    22 1   
     9     4     5 2   
    10     4     6 1   
    11     6     7 1   
    12     6     8 1   
    13     7    23 1   
    14     7    24 1   
    15     7    25 1   
    16     8     9 ar  
    17     8    10 ar  
    18     9    13 ar  
    19     9    26 1   
    20    10    11 ar  
    21    11    12 ar  
    22    11    27 1   
    23    12    13 ar  
    24    12    28 1   
    25    13    14 1   
    26    14    15 1   
    27    14    29 1   
    28    15    16 2   
    29    15    17 2   
    30    15    18 1   
    31    18    30 1   
    32    18    31 1   
    33    18    32 1   
@<TRIPOS>SUBSTRUCTURE
     1 5WS         1 TEMP              0 ****  ****    0 ROOT
