@<TRIPOS>MOLECULE
molecule
   32    33     1     0     0
SMALL
bcc


@<TRIPOS>ATOM
      1 CAA          0.0000     0.0000     0.0000 c3         1 5WS      -0.058900
      2 CAL          1.5070     0.0000     0.0000 cc         1 5WS       0.002600
      3 CAI          2.1940     0.0000     1.1690 cd         1 5WS      -0.237200
      4 CAN          3.6030    -0.0010     1.1670 c          1 5WS       0.695700
      5 OAD          4.2050    -0.0010     2.2270 o          1 5WS      -0.644500
      6 NAQ          4.2960    -0.0010     0.0120 n          1 5WS      -0.333000
      7 CAB          5.7610    -0.0030     0.0410 c3         1 5WS       0.075300
      8 CAP          3.6330    -0.0010    -1.1990 ca         1 5WS       0.099600
      9 CAJ          4.3400    -0.0010    -2.3930 ca         1 5WS      -0.162000
     10 CAO          2.2250    -0.0060    -1.2240 ca         1 5WS      -0.123800
     11 CAH          1.5490    -0.0050    -2.4530 ca         1 5WS      -0.071000
     12 CAG          2.2570    -0.0000    -3.6170 ca         1 5WS      -0.176000
     13 CAM          3.6540    -0.0010    -3.5970 ca         1 5WS       0.161600
     14 NAK          4.3610    -0.0020    -4.7960 nu         1 5WS      -0.784500
     15 SAR          5.0950    -1.3890    -5.3240 s6         1 5WS       1.323900
     16 OAE          5.6970    -1.0200    -6.5580 o          1 5WS      -0.623800
     17 OAF          5.8850    -1.8090    -4.2200 o          1 5WS      -0.623800
     18 CAC          3.7270    -2.5470    -5.6050 c3         1 5WS      -0.242300
     19 H1          -0.3610    -0.8860    -0.5080 hc         1 5WS       0.052033
     20 H2          -0.3610     0.8830    -0.5130 hc         1 5WS       0.052033
     21 H3          -0.3610     0.0030     1.0210 hc         1 5WS       0.052033
     22 H4           1.6560     0.0000     2.1090 ha         1 5WS       0.166000
     23 H5           6.1330     0.8740    -0.4750 h1         1 5WS       0.061700
     24 H6           6.1020     0.0110     1.0690 h1         1 5WS       0.061700
     25 H7           6.1300    -0.8950    -0.4500 h1         1 5WS       0.061700
     26 H8           5.4230    -0.0020    -2.3840 ha         1 5WS       0.168000
     27 H9           0.4660    -0.0040    -2.4760 ha         1 5WS       0.142000
     28 H10          1.7330     0.0000    -4.5650 ha         1 5WS       0.137000
     29 H11          4.4420     0.8410    -5.3300 hn         1 5WS       0.469800
     30 H12          2.9210    -2.0360    -6.1180 h1         1 5WS       0.100033
     31 H13          3.3690    -2.9200    -4.6530 h1         1 5WS       0.100033
     32 H14          4.0730    -3.3760    -6.2100 h1         1 5WS       0.100033
@<TRIPOS>BOND
     1    18    15 1   
     2    17    15 2   
     3    15    16 2   
     4    15    14 1   
     5    14    13 1   
     6    13     9 ar  
     7    13    12 ar  
     8     9     8 ar  
     9    12    11 ar  
    10     7     6 1   
    11     8     6 1   
    12     8    10 ar  
    13    11    10 ar  
    14     6     4 1   
    15    10     2 1   
    16     4     5 2   
    17     4     3 1   
    18     2     3 2   
    19     2     1 1   
    20     1    19 1   
    21     1    20 1   
    22     1    21 1   
    23     3    22 1   
    24     7    23 1   
    25     7    24 1   
    26     7    25 1   
    27     9    26 1   
    28    11    27 1   
    29    12    28 1   
    30    14    29 1   
    31    18    30 1   
    32    18    31 1   
    33    18    32 1   
@<TRIPOS>SUBSTRUCTURE
     1 5WS         1 TEMP              0 ****  ****    0 ROOT
