@<TRIPOS>MOLECULE
molecule
   31    32     1     0     0
SMALL
bcc


@<TRIPOS>ATOM
      1 CAB          0.0000     0.0000     0.0000 c3         1 5WT      -0.058900
      2 CAM          1.5070     0.0000     0.0000 cc         1 5WT       0.014600
      3 CAH          2.2010     0.0000     1.1660 cd         1 5WT      -0.250200
      4 CAN          3.6110     0.0010     1.1550 c          1 5WT       0.700700
      5 OAE          4.2130     0.0010     2.2150 o          1 5WT      -0.652500
      6 NAQ          4.3070     0.0010     0.0050 n          1 5WT      -0.337000
      7 CAC          5.7710     0.0020     0.0480 c3         1 5WT       0.078300
      8 CAP          3.6630     0.0010    -1.2140 ca         1 5WT       0.114600
      9 CAI          4.3830    -0.0000    -2.4020 ca         1 5WT      -0.226000
     10 CAO          2.2550    -0.0060    -1.2580 ca         1 5WT      -0.146800
     11 CAG          1.5920    -0.0070    -2.4920 ca         1 5WT      -0.056000
     12 CAF          2.3150    -0.0040    -3.6490 ca         1 5WT      -0.164000
     13 CAL          3.7100    -0.0020    -3.6130 ca         1 5WT       0.109600
     14 NAJ          4.4330    -0.0020    -4.8070 ns         1 5WT      -0.481100
     15 CAK          3.9500     0.6430    -5.8860 c          1 5WT       0.657100
     16 OAD          2.9380     1.3040    -5.7960 o          1 5WT      -0.585100
     17 CAA          4.6700     0.5450    -7.2070 c3         1 5WT      -0.172100
     18 H1          -0.3610     0.8810    -0.5160 hc         1 5WT       0.052367
     19 H2          -0.3610    -0.8880    -0.5050 hc         1 5WT       0.052367
     20 H3          -0.3610     0.0060     1.0210 hc         1 5WT       0.052367
     21 H4           1.6700    -0.0020     2.1100 ha         1 5WT       0.164000
     22 H5           6.1020     0.0130     1.0790 h1         1 5WT       0.056033
     23 H6           6.1470     0.8810    -0.4610 h1         1 5WT       0.056033
     24 H7           6.1480    -0.8880    -0.4430 h1         1 5WT       0.056033
     25 H8           5.4660     0.0020    -2.3810 ha         1 5WT       0.139000
     26 H9           0.5090    -0.0090    -2.5270 ha         1 5WT       0.142000
     27 H10          1.8010    -0.0050    -4.6030 ha         1 5WT       0.163000
     28 H11          5.3200    -0.4640    -4.8550 hn         1 5WT       0.326500
     29 H12          4.8840    -0.4940    -7.4250 hc         1 5WT       0.064700
     30 H13          5.5970     1.1020    -7.1550 hc         1 5WT       0.064700
     31 H14          4.0450     0.9570    -7.9900 hc         1 5WT       0.064700
@<TRIPOS>BOND
     1    17    15 1   
     2    15    14 1   
     3    15    16 2   
     4    14    13 1   
     5    13     9 ar  
     6    13    12 ar  
     7     9     8 ar  
     8    12    11 ar  
     9     7     6 1   
    10     8     6 1   
    11     8    10 ar  
    12    11    10 ar  
    13     6     4 1   
    14    10     2 1   
    15     4     5 2   
    16     4     3 1   
    17     2     3 2   
    18     2     1 1   
    19     1    18 1   
    20     1    19 1   
    21     1    20 1   
    22     3    21 1   
    23     7    22 1   
    24     7    23 1   
    25     7    24 1   
    26     9    25 1   
    27    11    26 1   
    28    12    27 1   
    29    14    28 1   
    30    17    29 1   
    31    17    30 1   
    32    17    31 1   
@<TRIPOS>SUBSTRUCTURE
     1 5WT         1 TEMP              0 ****  ****    0 ROOT
