@<TRIPOS>MOLECULE
molecule
   28    29     1     0     0
SMALL
bcc


@<TRIPOS>ATOM
      1 C4           0.0000     0.0000     0.0000 cc         1 5WU      -0.031600
      2 C5           1.3930     0.0000     0.0000 cd         1 5WU      -0.404900
      3 C6           2.1620     0.0000     1.2550 c          1 5WU       0.615700
      4 N1          -0.3920     0.0040    -1.2730 na         1 5WU       0.094400
      5 C7           1.3470     0.2740     2.5110 c3         1 5WU      -0.180400
      6 C8           0.0380    -0.5160     2.4220 c3         1 5WU      -0.069400
      7 C9          -0.8230    -0.0100     1.2620 c3         1 5WU      -0.022100
      8 O1           3.3570    -0.2030     1.2860 o          1 5WU      -0.535100
      9 C1           1.8170     0.0020    -1.3340 cd         1 5WU       0.406600
     10 C            3.2460     0.0000    -1.8130 c3         1 5WU      -0.110400
     11 N            0.7490     0.0040    -2.0900 nc         1 5WU      -0.528800
     12 C2          -1.7800     0.0090    -1.7410 c3         1 5WU       0.067300
     13 C3          -2.2600     1.4520    -1.9000 c3         1 5WU       0.119400
     14 O           -3.6150     1.4560    -2.3570 oh         1 5WU      -0.610800
     15 H1           1.1290     1.3330     2.5780 hc         1 5WU       0.069200
     16 H2           1.9060    -0.0450     3.3830 hc         1 5WU       0.069200
     17 H3          -0.5120    -0.3530     3.3400 hc         1 5WU       0.057700
     18 H4           0.2870    -1.5520     2.2240 hc         1 5WU       0.057700
     19 H5          -1.6740    -0.6670     1.1310 hc         1 5WU       0.059200
     20 H6          -1.1640     0.9950     1.4780 hc         1 5WU       0.059200
     21 H7           3.7620     0.8640    -1.4120 hc         1 5WU       0.057700
     22 H8           3.2650     0.0380    -2.8950 hc         1 5WU       0.057700
     23 H9           3.7390    -0.9030    -1.4740 hc         1 5WU       0.057700
     24 H10         -1.8410    -0.5000    -2.6960 h1         1 5WU       0.080200
     25 H11         -2.4060    -0.5030    -1.0200 h1         1 5WU       0.080200
     26 H12         -2.1990     1.9600    -0.9460 h1         1 5WU       0.035200
     27 H13         -1.6340     1.9630    -2.6220 h1         1 5WU       0.035200
     28 H14         -3.8900     2.3430    -2.5180 ho         1 5WU       0.414000
@<TRIPOS>BOND
     1    14    13 1   
     2     7     6 1   
     3     7     1 1   
     4    12    13 1   
     5    12     4 1   
     6     6     5 1   
     7     1     4 1   
     8     1     2 2   
     9     4    11 1   
    10     5     3 1   
    11     2     3 1   
    12     2     9 1   
    13    11     9 2   
    14     3     8 2   
    15     9    10 1   
    16     5    15 1   
    17     5    16 1   
    18     6    17 1   
    19     6    18 1   
    20     7    19 1   
    21     7    20 1   
    22    10    21 1   
    23    10    22 1   
    24    10    23 1   
    25    12    24 1   
    26    12    25 1   
    27    13    26 1   
    28    13    27 1   
    29    14    28 1   
@<TRIPOS>SUBSTRUCTURE
     1 5WU         1 TEMP              0 ****  ****    0 ROOT
