@<TRIPOS>MOLECULE
5WV
   20    21     1     0     0
SMALL
bcc


@<TRIPOS>ATOM
      1 OAB          0.0000     0.0000     0.0000 o          1 5WV      -0.670500
      2 CAH          1.2150     0.0000     0.0000 c          1 5WV       0.655100
      3 CAJ          2.0590     0.0000     1.2100 ca         1 5WV      -0.170600
      4 CAF          1.7500    -0.0010     2.5710 ca         1 5WV      -0.015000
      5 CAD          2.7650    -0.0010     3.5060 ca         1 5WV      -0.116000
      6 CAC          4.0880    -0.0000     3.1000 ca         1 5WV      -0.075000
      7 CAE          4.4020     0.0000     1.7510 ca         1 5WV      -0.084000
      8 CAI          3.3980    -0.0000     0.8120 ca         1 5WV      -0.100300
      9 CAG          3.3930     0.0000    -0.6960 c3         1 5WV       0.117300
     10 NAK          1.9830    -0.0050    -1.1030 n          1 5WV      -0.171800
     11 CAA          1.4930    -0.0070    -2.4840 c3         1 5WV       0.126300
     12 H1           0.7150    -0.0010     2.8930 ha         1 5WV       0.116000
     13 H2           2.5250    -0.0020     4.5620 ha         1 5WV       0.108000
     14 H3           4.8790    -0.0010     3.8400 ha         1 5WV       0.104000
     15 H4           5.4390     0.0010     1.4360 ha         1 5WV       0.104000
     16 H5           3.8830     0.8920    -1.0680 h1         1 5WV       0.023700
     17 H6           3.8900    -0.8870    -1.0690 h1         1 5WV       0.023700
     18 H7           2.3350    -0.0120    -3.1660 h1         1 5WV       0.008367
     19 H8           0.8950     0.8790    -2.6560 h1         1 5WV       0.008367
     20 H9           0.8880    -0.8900    -2.6510 h1         1 5WV       0.008367
@<TRIPOS>BOND
     1     1     2 2   
     2     2     3 1   
     3     2    10 1   
     4     3     4 ar  
     5     3     8 ar  
     6     4     5 ar  
     7     4    12 1   
     8     5     6 ar  
     9     5    13 1   
    10     6     7 ar  
    11     6    14 1   
    12     7     8 ar  
    13     7    15 1   
    14     8     9 1   
    15     9    10 1   
    16     9    16 1   
    17     9    17 1   
    18    10    11 1   
    19    11    18 1   
    20    11    19 1   
    21    11    20 1   
@<TRIPOS>SUBSTRUCTURE
     1 5WV         1 TEMP              0 ****  ****    0 ROOT
