@<TRIPOS>MOLECULE
molecule
   34    36     1     0     0
SMALL
bcc


@<TRIPOS>ATOM
      1 CAT          0.0000     0.0000     0.0000 c3         1 5WW       0.127700
      2 OAR          1.4290     0.0000     0.0000 os         1 5WW      -0.324900
      3 CAP          2.0460     0.0000     1.2100 ca         1 5WW       0.153100
      4 CAQ          3.4330     0.0010     1.2810 ca         1 5WW      -0.187000
      5 CAM          4.0620    -0.0000     2.5070 ca         1 5WW      -0.074000
      6 CAO          1.2880     0.0050     2.3740 ca         1 5WW      -0.187000
      7 CAN          1.9090     0.0050     3.6040 ca         1 5WW      -0.074000
      8 CAL          3.3040    -0.0010     3.6790 ca         1 5WW      -0.109800
      9 CAI          3.9750    -0.0020     4.9960 cc         1 5WW       0.105400
     10 CAH          3.2150    -0.0020     6.1190 cd         1 5WW      -0.192200
     11 CAE          3.8330    -0.0030     7.3930 ca         1 5WW      -0.007800
     12 CAD          3.0780    -0.0040     8.5770 ca         1 5WW       0.147600
     13 NAS          1.6840    -0.0040     8.5240 nv         1 5WW      -0.986200
     14 CAC          3.7280    -0.0050     9.7980 ca         1 5WW      -0.113000
     15 CAB          5.1160    -0.0050     9.8610 ca         1 5WW      -0.150000
     16 CAA          5.8740    -0.0040     8.7120 ca         1 5WW      -0.063000
     17 CAF          5.2450    -0.0040     7.4670 ca         1 5WW      -0.158600
     18 CAG          6.0130    -0.0030     6.2160 c          1 5WW       0.709100
     19 OAK          7.2310    -0.0040     6.2390 o          1 5WW      -0.642500
     20 NAJ          5.3490    -0.0070     5.0420 ns         1 5WW      -0.435100
     21 HAT1        -0.3610    -0.8830     0.5130 h1         1 5WW       0.043700
     22 HAT2        -0.3610    -0.0030    -1.0210 h1         1 5WW       0.043700
     23 HAT3        -0.3610     0.8860     0.5080 h1         1 5WW       0.043700
     24 HAQ          4.0210     0.0020     0.3710 ha         1 5WW       0.144500
     25 HAO          0.2060     0.0100     2.3150 ha         1 5WW       0.144500
     26 HAM          5.1440    -0.0020     2.5620 ha         1 5WW       0.137000
     27 HAN          1.3170     0.0070     4.5110 ha         1 5WW       0.137000
     28 HAH          2.1340    -0.0020     6.0420 ha         1 5WW       0.154000
     29 HAJ          5.8680    -0.0140     4.1860 hn         1 5WW       0.335500
     30 HAS1         1.1840     0.8620     8.5260 hn         1 5WW       0.427800
     31 HAS2         1.1840    -0.8710     8.5250 hn         1 5WW       0.427800
     32 HAC          3.1500    -0.0060    10.7130 ha         1 5WW       0.135000
     33 HAB          5.6070    -0.0060    10.8270 ha         1 5WW       0.134000
     34 HAA          6.9550    -0.0040     8.7750 ha         1 5WW       0.154000
@<TRIPOS>BOND
     1     1     2 1
     2     2     3 1
     3     3     4 ar
     4     3     6 ar
     5     4     5 ar
     6     5     8 ar
     7     6     7 ar
     8     7     8 ar
     9     8     9 1
    10     9    10 2
    11     9    20 1
    12    10    11 1
    13    11    12 ar
    14    11    17 ar
    15    12    13 1
    16    12    14 ar
    17    14    15 ar
    18    15    16 ar
    19    16    17 ar
    20    17    18 1
    21    18    19 2
    22    18    20 1
    23     1    21 1
    24     1    22 1
    25     1    23 1
    26     4    24 1
    27     6    25 1
    28     5    26 1
    29     7    27 1
    30    10    28 1
    31    20    29 1
    32    13    30 1
    33    13    31 1
    34    14    32 1
    35    15    33 1
    36    16    34 1
@<TRIPOS>SUBSTRUCTURE
     1 5WW         1 TEMP              0 ****  ****    0 ROOT
