@<TRIPOS>MOLECULE
molecule
   23    24     1     0     0
SMALL
bcc


@<TRIPOS>ATOM
      1 CAE          0.0000     0.0000     0.0000 ca         1 5WY      -0.126000
      2 CAC          1.3780     0.0000     0.0000 ca         1 5WY      -0.108000
      3 CAD          2.0770     0.0000     1.1950 ca         1 5WY      -0.056000
      4 CAK          1.4000     0.0010     2.4040 ca         1 5WY       0.075100
      5 OAH          2.1080    -0.0070     3.5670 os         1 5WY      -0.297900
      6 CAF          1.4010     0.3700     4.7530 c3         1 5WY       0.092400
      7 CAG          0.0550    -0.3680     4.7650 c3         1 5WY       0.095400
      8 OAI         -0.6740     0.0120     3.5930 os         1 5WY      -0.295900
      9 CAM          0.0090     0.0050     2.4200 ca         1 5WY       0.164100
     10 CAL         -0.6980     0.0040     1.2110 ca         1 5WY      -0.218600
     11 CAJ         -2.1730     0.0100     1.2160 c          1 5WY       0.504700
     12 OAB         -2.7780     0.0130     2.2700 o          1 5WY      -0.402100
     13 NAA         -2.8500     0.0150     0.0510 nz         1 5WY      -0.677400
     14 H1          -0.5420     0.0000    -0.9380 ha         1 5WY       0.114000
     15 H2           1.9170    -0.0030    -0.9400 ha         1 5WY       0.166000
     16 H3           3.1610    -0.0000     1.1850 ha         1 5WY       0.179000
     17 H4           1.2300     1.4400     4.7510 h1         1 5WY       0.090200
     18 H5           1.9780     0.0880     5.6260 h1         1 5WY       0.090200
     19 H6          -0.5050    -0.0670     5.6420 h1         1 5WY       0.092700
     20 H7           0.2370    -1.4350     4.7370 h1         1 5WY       0.092700
     21 H8          -3.8340     0.0200     0.2370 hn         1 5WY       0.475133
     22 H9          -2.6060     0.8300    -0.4750 hn         1 5WY       0.475133
     23 HAA3        -2.6150    -0.8040    -0.4750 hn         1 5WY       0.475133
@<TRIPOS>BOND
     1     2     1 ar
     2     2     3 ar
     3     1    10 ar
     4    12    11 2
     5     3     4 ar
     6    10    11 1
     7    10     9 ar
     8    11    13 1
     9     4     9 ar
    10     4     5 1
    11     9     8 1
    12     5     6 1
    13     8     7 1
    14     6     7 1
    15     1    14 1
    16     2    15 1
    17     3    16 1
    18     6    17 1
    19     6    18 1
    20     7    19 1
    21     7    20 1
    22    13    21 1
    23    13    22 1
    24    23    13 1
@<TRIPOS>SUBSTRUCTURE
     1 5WY         1 TEMP              0 ****  ****    0 ROOT
