@<TRIPOS>MOLECULE
5WZ
   29    30     1     0     0
SMALL
bcc


@<TRIPOS>ATOM
      1 C4           0.0000     0.0000     0.0000 c3         1 5WZ      -0.048400
      2 C5           2.8770     0.9330     1.8210 c          1 5WZ       0.640100
      3 C6           3.3530     0.9200     3.2500 cx         1 5WZ      -0.245700
      4 N1           2.0060     0.0000     1.3910 n          1 5WZ      -0.184800
      5 C7           2.8910     2.0600     4.1600 cx         1 5WZ      -0.035400
      6 C8           4.3420     2.0060     3.6760 cx         1 5WZ      -0.035400
      7 O            3.2780     1.7860     1.0570 o          1 5WZ      -0.607100
      8 C2           1.5100    -1.0390     2.3050 c3         1 5WZ       0.066500
      9 C1          -0.0220    -1.0280     2.2800 c3         1 5WZ      -0.048400
     10 C3           1.5320     0.0000     0.0000 c3         1 5WZ       0.066500
     11 C           -0.5050    -1.1790     0.8350 c3         1 5WZ      -0.085500
     12 N           -1.9730    -1.2030     0.8110 nz         1 5WZ       0.077400
     13 H1          -0.3600    -0.0980    -1.0170 hc         1 5WZ       0.040450
     14 H2          -0.3600     0.9270     0.4290 hc         1 5WZ       0.040450
     15 H3           3.4850    -0.0330     3.7490 hc         1 5WZ       0.070700
     16 H4           2.7350     1.7950     5.1990 hc         1 5WZ       0.056700
     17 H5           2.2690     2.8110     3.6890 hc         1 5WZ       0.056700
     18 H6           4.6060     2.7250     2.9100 hc         1 5WZ       0.056700
     19 H7           5.0720     1.7080     4.4190 hc         1 5WZ       0.056700
     20 H8           1.8570    -0.8330     3.3110 h1         1 5WZ       0.052200
     21 H9           1.8710    -2.0080     1.9830 h1         1 5WZ       0.052200
     22 H10         -0.3820    -0.0890     2.6840 hc         1 5WZ       0.040450
     23 H11         -0.3980    -1.8520     2.8740 hc         1 5WZ       0.040450
     24 H12          1.8940    -0.8870    -0.5060 h1         1 5WZ       0.052200
     25 H13          1.8940     0.8870    -0.5060 h1         1 5WZ       0.052200
     26 H14         -0.1180    -2.1030     0.4230 hx         1 5WZ       0.095700
     27 H15         -2.3040    -1.9740     1.3570 hn         1 5WZ       0.225467
     28 H16         -2.2900    -1.3020    -0.1330 hn         1 5WZ       0.225467
     29 HN3         -2.3270    -0.3480     1.1930 hn         1 5WZ       0.225467
@<TRIPOS>BOND
     1     1    10 1   
     2     1    11 1   
     3     1    13 1   
     4     1    14 1   
     5     2     3 1   
     6     2     4 1   
     7     2     7 2   
     8     3     5 1   
     9     3     6 1   
    10     3    15 1   
    11     4     8 1   
    12     4    10 1   
    13     5     6 1   
    14     5    16 1   
    15     5    17 1   
    16     6    18 1   
    17     6    19 1   
    18     8     9 1   
    19     8    20 1   
    20     8    21 1   
    21     9    11 1   
    22     9    22 1   
    23     9    23 1   
    24    10    24 1   
    25    10    25 1   
    26    11    12 1   
    27    11    26 1   
    28    12    27 1   
    29    12    28 1   
    30    12    29 1   
@<TRIPOS>SUBSTRUCTURE
     1 5WZ         1 TEMP              0 ****  ****    0 ROOT
