@<TRIPOS>MOLECULE
molecule
   29    30     1     0     0
SMALL
bcc


@<TRIPOS>ATOM
      1 C4           0.0000     0.0000     0.0000 c3         1 5WZ      -0.123400
      2 C5           2.8770     0.9330     1.8210 c          1 5WZ       0.703100
      3 C6           3.3530     0.9200     3.2500 cx         1 5WZ      -0.259700
      4 N1           2.0060     0.0000     1.3910 n          1 5WZ      -0.508800
      5 C7           2.8910     2.0600     4.1600 cx         1 5WZ      -0.097400
      6 C8           4.3420     2.0060     3.6760 cx         1 5WZ      -0.097400
      7 O            3.2780     1.7860     1.0570 o          1 5WZ      -0.574100
      8 C2           1.5100    -1.0390     2.3050 c3         1 5WZ       0.117500
      9 C1          -0.0220    -1.0280     2.2800 c3         1 5WZ      -0.123400
     10 C3           1.5320     0.0000     0.0000 c3         1 5WZ       0.117500
     11 C           -0.5050    -1.1790     0.8350 c3         1 5WZ       0.097500
     12 N           -1.9730    -1.2030     0.8110 nz         1 5WZ      -0.810600
     13 H1          -0.3600    -0.0980    -1.0170 hc         1 5WZ       0.071450
     14 H2          -0.3600     0.9270     0.4290 hc         1 5WZ       0.071450
     15 H3           3.4850    -0.0330     3.7490 hc         1 5WZ       0.090700
     16 H4           2.7350     1.7950     5.1990 hc         1 5WZ       0.091200
     17 H5           2.2690     2.8110     3.6890 hc         1 5WZ       0.091200
     18 H6           4.6060     2.7250     2.9100 hc         1 5WZ       0.091200
     19 H7           5.0720     1.7080     4.4190 hc         1 5WZ       0.091200
     20 H8           1.8570    -0.8330     3.3110 h1         1 5WZ       0.083700
     21 H9           1.8710    -2.0080     1.9830 h1         1 5WZ       0.083700
     22 H10         -0.3820    -0.0890     2.6840 hc         1 5WZ       0.071450
     23 H11         -0.3980    -1.8520     2.8740 hc         1 5WZ       0.071450
     24 H12          1.8940    -0.8870    -0.5060 h1         1 5WZ       0.083700
     25 H13          1.8940     0.8870    -0.5060 h1         1 5WZ       0.083700
     26 H14         -0.1180    -2.1030     0.4230 hx         1 5WZ       0.116700
     27 H15         -2.3040    -1.9740     1.3570 hn         1 5WZ       0.454800
     28 H16         -2.2900    -1.3020    -0.1330 hn         1 5WZ       0.454800
     29 HN3         -2.3270    -0.3480     1.1930 hn         1 5WZ       0.454800
@<TRIPOS>BOND
     1     9    11 1   
     2     9     8 1   
     3    12    11 1   
     4    11     1 1   
     5     8     4 1   
     6     7     2 2   
     7     4     2 1   
     8     4    10 1   
     9     2     3 1   
    10     1    10 1   
    11     5     3 1   
    12     5     6 1   
    13     3     6 1   
    14     1    13 1   
    15     1    14 1   
    16     3    15 1   
    17     5    16 1   
    18     5    17 1   
    19     6    18 1   
    20     6    19 1   
    21     8    20 1   
    22     8    21 1   
    23     9    22 1   
    24     9    23 1   
    25    10    24 1   
    26    10    25 1   
    27    11    26 1   
    28    12    27 1   
    29    12    28 1   
    30    29    12 1   
@<TRIPOS>SUBSTRUCTURE
     1 5WZ         1 TEMP              0 ****  ****    0 ROOT
