@<TRIPOS>MOLECULE
molecule
   45    47     1     0     0
SMALL
bcc


@<TRIPOS>ATOM
      1 S19          0.0000     0.0000     0.0000 sy         1 5X        1.417200
      2 O20          1.4220     0.0000     0.0000 o          1 5X       -0.606300
      3 O21         -0.7770     0.0000     1.1900 o          1 5X       -0.606300
      4 N22         -0.4680     1.3320    -0.8640 n7         1 5X       -0.657100
      5 C24         -0.4970    -1.4190    -0.9180 ca         1 5X       -0.313500
      6 C25          0.3590    -1.9750    -1.8490 ca         1 5X       -0.023000
      7 C26         -0.0310    -3.0890    -2.5690 ca         1 5X       -0.148500
      8 C27         -1.2790    -3.6450    -2.3600 ca         1 5X       -0.068000
      9 C29         -2.1360    -3.0890    -1.4280 ca         1 5X       -0.148500
     10 C30         -1.7440    -1.9800    -0.7040 ca         1 5X       -0.023000
     11 C1          -4.6040     0.0390    -2.5270 c3         1 5X       -0.015200
     12 C2          -6.0440     0.3570    -2.8390 c2         1 5X       -0.142400
     13 N1          -1.8220     1.5360    -1.1580 n          1 5X       -0.230800
     14 C9          -2.5800     2.2300    -0.3060 cs         1 5X        0.412000
     15 C14         -3.7960     1.3370    -2.4690 c3         1 5X       -0.086600
     16 C7          -2.3250     1.0430    -2.2780 c          1 5X        0.684500
     17 S1          -4.2200     2.2980    -0.9770 ss         1 5X       -0.116700
     18 S2          -2.0620     2.9270     1.1700 s          1 5X       -0.357400
     19 O1          -1.6660     0.4120    -3.0780 o          1 5X       -0.546500
     20 C3          -6.4770     0.3110    -4.0920 ce         1 5X       -0.101200
     21 C4          -6.9930     0.7290    -1.7280 c3         1 5X       -0.057900
     22 C5          -7.8400     0.7770    -4.4210 ca         1 5X       -0.066800
     23 C6          -8.3480     1.9330    -3.8270 ca         1 5X       -0.115500
     24 C8          -8.6230     0.0660    -5.3320 ca         1 5X       -0.115500
     25 C10         -9.8940     0.5060    -5.6350 ca         1 5X       -0.129000
     26 C11         -9.6210     2.3630    -4.1390 ca         1 5X       -0.129000
     27 C13        -10.3940     1.6500    -5.0390 ca         1 5X       -0.122000
     28 H22          0.2130     2.0090    -1.1460 hn         1 5X        0.478800
     29 H25          1.3370    -1.5400    -2.0140 ha         1 5X        0.149000
     30 H26          0.6410    -3.5240    -3.2990 ha         1 5X        0.137500
     31 H27         -1.5850    -4.5170    -2.9260 ha         1 5X        0.134000
     32 H29         -3.1130    -3.5270    -1.2620 ha         1 5X        0.137500
     33 H30         -2.4150    -1.5440     0.0260 ha         1 5X        0.149000
     34 H11A        -4.5450    -0.4660    -1.5700 hc         1 5X        0.071700
     35 H12         -4.2010    -0.6030    -3.3000 hc         1 5X        0.071700
     36 H14         -3.9520     1.9320    -3.3610 h1         1 5X        0.128700
     37 H3          -5.7930     0.0430    -4.8890 ha         1 5X        0.135000
     38 H41         -8.0050     0.4710    -2.0170 hc         1 5X        0.051367
     39 H42         -6.9300     1.7940    -1.5410 hc         1 5X        0.051367
     40 H43         -6.7250     0.1880    -0.8290 hc         1 5X        0.051367
     41 H6          -7.7430     2.4920    -3.1220 ha         1 5X        0.134500
     42 H8          -8.2320    -0.8300    -5.7990 ha         1 5X        0.134500
     43 H10        -10.5030    -0.0460    -6.3400 ha         1 5X        0.132500
     44 H11        -10.0180     3.2590    -3.6770 ha         1 5X        0.132500
     45 H13        -11.3930     1.9920    -5.2800 ha         1 5X        0.131000
@<TRIPOS>BOND
     1     1     2 2   
     2     1     3 2   
     3     1     4 1   
     4     1     5 1   
     5     4    13 1   
     6     4    28 1   
     7     5     6 ar  
     8     5    10 ar  
     9     6     7 ar  
    10     6    29 1   
    11     7     8 ar  
    12     7    30 1   
    13     8     9 ar  
    14     8    31 1   
    15     9    10 ar  
    16     9    32 1   
    17    10    33 1   
    18    11    12 1   
    19    11    15 1   
    20    11    34 1   
    21    11    35 1   
    22    12    20 2   
    23    12    21 1   
    24    13    14 1   
    25    13    16 1   
    26    14    17 1   
    27    14    18 2   
    28    15    16 1   
    29    15    17 1   
    30    15    36 1   
    31    16    19 2   
    32    20    22 1   
    33    20    37 1   
    34    21    38 1   
    35    21    39 1   
    36    21    40 1   
    37    22    23 ar  
    38    22    24 ar  
    39    23    26 ar  
    40    23    41 1   
    41    24    25 ar  
    42    24    42 1   
    43    25    27 ar  
    44    25    43 1   
    45    26    27 ar  
    46    26    44 1   
    47    27    45 1   
@<TRIPOS>SUBSTRUCTURE
     1 5X          1 TEMP              0 ****  ****    0 ROOT
