@<TRIPOS>MOLECULE
molecule
   69    73     1     0     0
SMALL
bcc


@<TRIPOS>ATOM
      1 CAA          0.0000     0.0000     0.0000 c3         1 5X1       0.675200
      2 CAB          6.4110    -1.0410    -9.2600 c3         1 5X1      -0.078100
      3 CAC          6.4170    -4.9470     4.2490 c3         1 5X1       0.153100
      4 CAE          5.6130    -0.5330    -4.9760 ca         1 5X1      -0.121000
      5 CAF          6.2950    -0.4440    -6.1710 ca         1 5X1      -0.110000
      6 CAG          3.0060     3.4840   -12.5810 ca         1 5X1       0.648900
      7 CAH          4.8340     2.7920   -11.3730 ca         1 5X1       0.416200
      8 CAI          2.6320     2.0270   -10.8440 ca         1 5X1       0.416200
      9 CAJ          2.1970     0.0000     1.2000 ca         1 5X1      -0.039000
     10 CAK          2.1950     0.0010    -1.1960 ca         1 5X1      -0.061000
     11 CAL          4.2810     0.0120     0.0200 ca         1 5X1      -0.040000
     12 CAM          3.8210     0.7530    -5.9220 ca         1 5X1      -0.155000
     13 CAN          5.6620    -3.5140     2.4490 c3         1 5X1       0.164300
     14 CAO          5.2470    -2.8870     4.7500 c3         1 5X1       0.164300
     15 CAP          5.4940    -2.0550     2.0210 c3         1 5X1       0.160300
     16 CAQ          5.0780    -1.4260     4.3210 c3         1 5X1       0.160300
     17 CAR          4.3240     0.0060     2.5190 c3         1 5X1       0.208100
     18 CAS          3.8770     1.6000    -8.2570 c3         1 5X1       0.216100
     19 CAT          5.9770     1.4120    -9.4260 c3         1 5X1       0.155800
     20 CAX          4.3350    -0.0100    -2.4700 c          1 5X1       0.678700
     21 CAY          1.5070     0.0000     0.0000 ca         1 5X1      -0.189300
     22 CAZ          3.5810     0.0060     1.2090 ca         1 5X1      -0.091300
     23 NAU          4.3040     3.5050   -12.3540 nb         1 5X1      -0.715000
     24 NAV          2.1820     2.7630   -11.8470 nb         1 5X1      -0.715000
     25 NAW          3.6660    -0.0210    -3.6400 ns         1 5X1      -0.472100
     26 OAD          5.5510    -0.0100    -2.4660 o          1 5X1      -0.593100
     27 CBA          4.3660     0.0670    -4.8470 ca         1 5X1       0.053600
     28 CBB          3.5920     0.0010    -1.1930 ca         1 5X1      -0.155600
     29 CBC          4.5100     0.8400    -7.1210 ca         1 5X1      -0.066300
     30 CBD          3.9990     2.0120   -10.5780 ca         1 5X1      -0.146000
     31 CBE          5.7460     0.2410    -7.2450 ca         1 5X1      -0.075300
     32 CBF          6.5270     0.3000    -8.5330 c3         1 5X1      -0.019400
     33 NBG          6.1710    -3.5620     3.8280 n3         1 5X1      -0.733600
     34 NBH          4.5700    -1.3790     2.9420 n3         1 5X1      -0.730600
     35 NBI          4.5170     1.2480    -9.5290 nh         1 5X1      -0.579000
     36 F01         -0.4660    -0.6610     1.1420 f          1 5X1      -0.221967
     37 F02         -0.4680     1.3190    -0.0000 f          1 5X1      -0.221967
     38 F03         -0.4660    -0.6600    -1.1430 f          1 5X1      -0.221967
     39 H2           7.0600    -1.7670    -8.7860 hc         1 5X1       0.041033
     40 H3           6.7030    -0.9170   -10.2960 hc         1 5X1       0.041033
     41 H4           7.1270    -5.4100     3.5730 h1         1 5X1       0.033033
     42 H5           6.8200    -4.9530     5.2550 h1         1 5X1       0.033033
     43 H6           5.4860    -5.5020     4.2300 h1         1 5X1       0.033033
     44 H7           6.0460    -1.0710    -4.1410 ha         1 5X1       0.167000
     45 H8           7.2670    -0.9110    -6.2710 ha         1 5X1       0.137000
     46 H9           2.6050     4.0770   -13.3930 h5         1 5X1       0.061100
     47 H10          5.9030     2.8110   -11.1950 h4         1 5X1       0.036100
     48 H11          1.9490     1.4360   -10.2460 h4         1 5X1       0.036100
     49 H12          1.6510    -0.0050     2.1360 ha         1 5X1       0.156000
     50 H13          1.6540    -0.0080    -2.1340 ha         1 5X1       0.140000
     51 H14          5.3640     0.0140     0.0280 ha         1 5X1       0.164000
     52 H15          2.8490     1.2220    -5.8250 ha         1 5X1       0.130000
     53 H16          4.7040    -4.0160     2.4010 h1         1 5X1       0.042700
     54 H17          6.3670    -4.0040     1.7880 h1         1 5X1       0.042700
     55 H18          4.2840    -3.3830     4.7230 h1         1 5X1       0.042700
     56 H19          5.6500    -2.9220     5.7540 h1         1 5X1       0.042700
     57 H20          5.0910    -2.0190     1.0160 h1         1 5X1       0.043200
     58 H21          6.4570    -1.5580     2.0480 h1         1 5X1       0.043200
     59 H22          6.0360    -0.9240     4.3690 h1         1 5X1       0.043200
     60 H23          4.3730    -0.9360     4.9810 h1         1 5X1       0.043200
     61 H24          5.2690     0.5200     2.3980 h1         1 5X1       0.046700
     62 H25          3.7300     0.5120     3.2710 h1         1 5X1       0.046700
     63 H26          3.9930     2.6630    -8.0820 h1         1 5X1       0.053200
     64 H27          2.8240     1.3530    -8.3070 h1         1 5X1       0.053200
     65 H28          6.4210     1.3390   -10.4120 h1         1 5X1       0.049200
     66 H29          6.2050     2.3760    -8.9890 h1         1 5X1       0.049200
     67 H30          2.6690    -0.1160    -3.6450 hn         1 5X1       0.327500
     68 H31          7.5680     0.5030    -8.3100 hc         1 5X1       0.061700
     69 H1           5.3860    -1.3890    -9.2140 hc         1 5X1       0.041033
@<TRIPOS>BOND
     1    16    14 1   
     2    16    34 1   
     3    17    34 1   
     4    17    22 1   
     5    14    33 1   
     6    34    15 1   
     7    22     9 ar  
     8    22    11 ar  
     9    38     1 1   
    10     9    21 ar  
    11    33     3 1   
    12    33    13 1   
    13    11    28 ar  
    14    15    13 1   
    15    21     1 1   
    16    21    10 ar  
    17    36     1 1   
    18     1    37 1   
    19    10    28 ar  
    20    28    20 1   
    21    25    20 1   
    22    25    27 1   
    23    20    26 2   
    24     4    27 ar  
    25     4     5 ar  
    26    27    12 ar  
    27     5    31 ar  
    28    12    29 ar  
    29     2    32 1   
    30    31    29 ar  
    31    31    32 1   
    32    29    18 1   
    33    32    19 1   
    34    18    35 1   
    35    19    35 1   
    36    35    30 1   
    37    30     8 ar  
    38    30     7 ar  
    39     8    24 ar  
    40    24     6 ar  
    41     7    23 ar  
    42     6    23 ar  
    43     2    69 1   
    44     2    39 1   
    45     2    40 1   
    46     3    41 1   
    47     3    42 1   
    48     3    43 1   
    49     4    44 1   
    50     5    45 1   
    51     6    46 1   
    52     7    47 1   
    53     8    48 1   
    54     9    49 1   
    55    10    50 1   
    56    11    51 1   
    57    12    52 1   
    58    13    53 1   
    59    13    54 1   
    60    14    55 1   
    61    14    56 1   
    62    15    57 1   
    63    15    58 1   
    64    16    59 1   
    65    16    60 1   
    66    17    61 1   
    67    17    62 1   
    68    18    63 1   
    69    18    64 1   
    70    19    65 1   
    71    19    66 1   
    72    25    67 1   
    73    32    68 1   
@<TRIPOS>SUBSTRUCTURE
     1 5X1         1 TEMP              0 ****  ****    0 ROOT
