@<TRIPOS>MOLECULE
5X2
   59    62     1     0     0
SMALL
bcc


@<TRIPOS>ATOM
      1 C10          0.0000     0.0000     0.0000 c3         1 5X2       0.201400
      2 C20         -2.6700     0.0110     0.4250 ca         1 5X2      -0.180000
      3 C21         -4.0390     0.0110     0.6080 ca         1 5X2      -0.035800
      4 C22         -4.9580     0.0160    -0.5870 c3         1 5X2       0.055200
      5 C01          5.7130    -0.6790    -1.4280 ca         1 5X2      -0.208200
      6 C02          6.7580    -1.5990    -1.4280 ca         1 5X2      -0.112000
      7 C03          6.4820    -2.9480    -1.4350 ca         1 5X2      -0.066000
      8 C04          5.1690    -3.4020    -1.4420 ca         1 5X2      -0.134000
      9 C05          4.1280    -2.5190    -1.4420 ca         1 5X2      -0.029000
     10 C06          4.3830    -1.1420    -1.4410 ca         1 5X2      -0.120800
     11 C07          3.5470     0.0010    -1.4410 cc         1 5X2      -0.030400
     12 C09          1.5300     0.0000     0.0000 c3         1 5X2      -0.028400
     13 O11         -0.4770     0.0000     1.3470 os         1 5X2      -0.305900
     14 C12          4.3480     1.0980    -1.4410 cd         1 5X2      -0.357300
     15 N13          5.6700     0.6950    -1.4220 na         1 5X2       0.371600
     16 C14         -4.5680     0.0050     1.8860 ca         1 5X2      -0.080600
     17 Cl1         -6.2880     0.0040     2.1130 cl         1 5X2      -0.029400
     18 C16         -3.7260    -0.0020     2.9850 ca         1 5X2      -0.035800
     19 C18         -2.3560    -0.0010     2.8060 ca         1 5X2      -0.180000
     20 C19         -1.8240    -0.0000     1.5250 ca         1 5X2       0.166100
     21 C23          3.8830     2.4940    -1.4410 c          1 5X2       0.704300
     22 O24          2.6910     2.7370    -1.4410 o          1 5X2      -0.603100
     23 N25          4.7770     3.5020    -1.4410 ns         1 5X2      -0.310300
     24 S26          4.2530     5.0730    -1.4400 sy         1 5X2       1.043900
     25 O27          5.4190     5.8850    -1.4050 o          1 5X2      -0.568800
     26 O28          3.2700     5.1680    -2.4630 o          1 5X2      -0.568800
     27 C29          2.0940     5.7650     2.4780 ca         1 5X2      -0.040000
     28 C30          3.4530     6.0020     2.3860 ca         1 5X2      -0.135500
     29 C31          4.1120     5.7920     1.1900 ca         1 5X2       0.013500
     30 C32          3.4130     5.3430     0.0850 ca         1 5X2      -0.164500
     31 C33          2.0530     5.1060     0.1770 ca         1 5X2       0.013500
     32 C34          1.3950     5.3170     1.3730 ca         1 5X2      -0.135500
     33 H1          -0.3610     0.8840    -0.5110 h1         1 5X2       0.004700
     34 H2          -0.3610    -0.8840    -0.5110 h1         1 5X2       0.004700
     35 H3          -4.8550    -0.9280     4.5340 hc         1 5X2       0.013867
     36 H4          -3.5020     0.0610     5.1010 hc         1 5X2       0.013867
     37 H5          -4.9710     0.8370     4.4940 hc         1 5X2       0.013867
     38 H6          -2.2570    -0.0130    -0.5760 ha         1 5X2       0.125000
     39 H7          -5.4190    -0.9590    -0.6930 hc         1 5X2       0.013867
     40 H8          -5.7280     0.7650    -0.4480 hc         1 5X2       0.013867
     41 H9          -4.3890     0.2450    -1.4800 hc         1 5X2       0.013867
     42 H11          7.2970    -3.6620    -1.4350 ha         1 5X2       0.102000
     43 H12          4.9690    -4.4670    -1.4480 ha         1 5X2       0.106000
     44 H13          3.1080    -2.8830    -1.4480 ha         1 5X2       0.104000
     45 H16          1.8910     0.8840     0.5110 hc         1 5X2       0.025700
     46 H17          1.8910    -0.8850     0.5100 hc         1 5X2       0.025700
     47 H18          6.4650     1.3030    -1.4180 hn         1 5X2       0.114700
     48 H19         -1.6970    -0.0100     3.6660 ha         1 5X2       0.125000
     49 H20          5.7570     3.3010    -1.4770 hn         1 5X2       0.222500
     50 H21          1.5770     5.9310     3.4160 ha         1 5X2       0.102000
     51 H22          4.0010     6.3530     3.2520 ha         1 5X2       0.111000
     52 H23          5.1770     5.9770     1.1190 ha         1 5X2       0.130000
     53 H24          1.5050     4.7540    -0.6890 ha         1 5X2       0.130000
     54 H25          0.3300     5.1310     1.4450 ha         1 5X2       0.111000
     55 C17         -4.3040    -0.0090     4.3760 c3         1 5X2       0.055200
     56 C08          2.0410     0.0010    -1.4430 c3         1 5X2       0.042800
     57 H10          7.7850    -1.2550    -1.4220 ha         1 5X2       0.102000
     58 H14          1.6790     0.8850    -1.9530 hc         1 5X2       0.034700
     59 H15          1.6800    -0.8840    -1.9540 hc         1 5X2       0.034700
@<TRIPOS>BOND
     1     1    12 1   
     2     1    13 1   
     3     1    33 1   
     4     1    34 1   
     5     2     3 ar  
     6     2    20 ar  
     7     2    38 1   
     8     3     4 1   
     9     3    16 ar  
    10     4    39 1   
    11     4    40 1   
    12     4    41 1   
    13     5     6 ar  
    14     5    10 ar  
    15     5    15 1   
    16     6     7 ar  
    17     6    57 1   
    18     7     8 ar  
    19     7    42 1   
    20     8     9 ar  
    21     8    43 1   
    22     9    10 ar  
    23     9    44 1   
    24    10    11 1   
    25    11    14 2   
    26    11    56 1   
    27    12    45 1   
    28    12    46 1   
    29    12    56 1   
    30    13    20 1   
    31    14    15 1   
    32    14    21 1   
    33    15    47 1   
    34    16    17 1   
    35    16    18 ar  
    36    18    19 ar  
    37    18    55 1   
    38    19    20 ar  
    39    19    48 1   
    40    21    22 2   
    41    21    23 1   
    42    23    24 1   
    43    23    49 1   
    44    24    25 2   
    45    24    26 2   
    46    24    30 1   
    47    27    28 ar  
    48    27    32 ar  
    49    27    50 1   
    50    28    29 ar  
    51    28    51 1   
    52    29    30 ar  
    53    29    52 1   
    54    30    31 ar  
    55    31    32 ar  
    56    31    53 1   
    57    32    54 1   
    58    35    55 1   
    59    36    55 1   
    60    37    55 1   
    61    56    58 1   
    62    56    59 1   
@<TRIPOS>SUBSTRUCTURE
     1 5X2         1 TEMP              0 ****  ****    0 ROOT
