@<TRIPOS>MOLECULE
5X4
   61    64     1     0     0
SMALL
bcc


@<TRIPOS>ATOM
      1 C11          0.0000     0.0000     0.0000 c          1 5X4       0.567700
      2 C12          1.4780     0.0000     0.0000 ca         1 5X4      -0.157600
      3 C13          2.1790     0.0000     1.2070 ca         1 5X4      -0.062000
      4 C14          3.5590    -0.0010     1.2000 ca         1 5X4      -0.113000
      5 C15          4.2470    -0.0000    -0.0010 ca         1 5X4      -0.025000
      6 C16          3.5570    -0.0000    -1.2010 ca         1 5X4      -0.218300
      7 C17          4.3160    -0.0000    -2.5030 c3         1 5X4       0.642200
      8 C21          2.1790    -0.0060    -1.2070 ca         1 5X4       0.028000
      9 C24         -2.3750     0.0220     3.6740 c3         1 5X4      -0.108000
     10 C25         -1.6790     1.2880     3.9510 c3         1 5X4      -0.058400
     11 C26         -1.2070     1.4430     5.3940 c3         1 5X4      -0.020400
     12 C27          0.1370     0.7780     5.5550 c3         1 5X4      -0.042400
     13 C28         -0.0460    -0.6830     6.0040 c3         1 5X4       0.040000
     14 C02         -5.3800     0.0190     2.5200 ca         1 5X4      -0.071300
     15 C03         -6.5520     0.0220     1.7920 ca         1 5X4      -0.095000
     16 C04         -6.5180     0.0230     0.4050 ca         1 5X4      -0.114000
     17 C05         -5.3140     0.0210    -0.2640 ca         1 5X4      -0.045000
     18 C06         -4.1190     0.0190     0.4580 ca         1 5X4       0.080400
     19 C07         -4.1590     0.0240     1.8630 ca         1 5X4      -0.246200
     20 N08         -2.8410     0.0190     2.2850 na         1 5X4       0.293700
     21 C09         -2.0580     0.0130     1.1680 cc         1 5X4       0.147400
     22 N10         -0.6740     0.0070     1.1680 ns         1 5X4      -0.047400
     23 F18          3.9810     1.1420    -3.2380 f          1 5X4      -0.205300
     24 F19          5.6910    -0.0010    -2.2420 f          1 5X4      -0.205300
     25 F20          3.9800    -1.1430    -3.2380 f          1 5X4      -0.205300
     26 O22         -0.6090     0.0000    -1.0520 o          1 5X4      -0.549100
     27 N23         -2.8090     0.0180     0.0970 nd         1 5X4      -0.490100
     28 N29         -1.1690    -1.3420     5.3110 n          1 5X4      -0.151800
     29 C31         -1.7650    -2.3260     7.5010 c3         1 5X4      -0.101400
     30 C32         -2.8360    -3.2590     8.0670 c3         1 5X4       0.020900
     31 O33         -2.9280    -2.6850     5.4790 o          1 5X4      -0.634100
     32 C34         -1.4160    -1.1740     3.8950 c3         1 5X4       0.037000
     33 H1           1.6420    -0.0000     2.1470 ha         1 5X4       0.096000
     34 H2           4.1040    -0.0010     2.1360 ha         1 5X4       0.111000
     35 H3           5.3300    -0.0010    -0.0020 ha         1 5X4       0.122000
     36 H4           1.6400    -0.0060    -2.1470 ha         1 5X4       0.142000
     37 H5          -3.2220    -0.0730     4.3420 h1         1 5X4       0.091700
     38 H6          -2.3520     2.1050     3.7220 hc         1 5X4       0.027700
     39 H7          -0.8160     1.3540     3.3000 hc         1 5X4       0.027700
     40 H8          -1.9230     0.9750     6.0590 hc         1 5X4       0.027200
     41 H9          -1.1180     2.4960     5.6330 hc         1 5X4       0.027200
     42 H10          0.7130     1.3120     6.3010 hc         1 5X4       0.022200
     43 H11          0.6620     0.7970     4.6070 hc         1 5X4       0.022200
     44 H12          0.8650    -1.2310     5.7940 h1         1 5X4       0.026200
     45 H13         -0.2350    -0.7000     7.0710 h1         1 5X4       0.026200
     46 H14         -6.4590     0.0590     4.3560 hc         1 5X4       0.014033
     47 H15         -4.8920     0.8800     4.4060 hc         1 5X4       0.014033
     48 H16         -4.9640    -0.8870     4.4020 hc         1 5X4       0.014033
     49 H17         -7.5060     0.0230     2.3060 ha         1 5X4       0.106000
     50 H18         -7.4450     0.0250    -0.1560 ha         1 5X4       0.104000
     51 H19         -5.2950     0.0220    -1.3470 ha         1 5X4       0.113000
     52 H20         -0.1740     0.0490     2.0340 hn         1 5X4       0.179500
     53 H21         -0.7860    -2.7610     7.6620 hc         1 5X4       0.028700
     54 H22         -1.8200    -1.3660     8.0020 hc         1 5X4       0.028700
     55 H23         -2.6450    -3.4330     9.1190 hc         1 5X4       0.010700
     56 H24         -3.8120    -2.8020     7.9490 hc         1 5X4       0.010700
     57 H25         -2.8130    -4.2020     7.5350 hc         1 5X4       0.010700
     58 H26         -1.8680    -2.0750     3.4990 h1         1 5X4       0.043200
     59 H27         -0.4780    -0.9810     3.3870 h1         1 5X4       0.043200
     60 C30         -1.9960    -2.1310     6.0250 c          1 5X4       0.579100
     61 C01         -5.4270     0.0180     4.0260 c3         1 5X4       0.044200
@<TRIPOS>BOND
     1     1     2 1   
     2     1    22 1   
     3     1    26 2   
     4     2     3 ar  
     5     2     8 ar  
     6     3     4 ar  
     7     3    33 1   
     8     4     5 ar  
     9     4    34 1   
    10     5     6 ar  
    11     5    35 1   
    12     6     7 1   
    13     6     8 ar  
    14     7    23 1   
    15     7    24 1   
    16     7    25 1   
    17     8    36 1   
    18     9    10 1   
    19     9    20 1   
    20     9    32 1   
    21     9    37 1   
    22    10    11 1   
    23    10    38 1   
    24    10    39 1   
    25    11    12 1   
    26    11    40 1   
    27    11    41 1   
    28    12    13 1   
    29    12    42 1   
    30    12    43 1   
    31    13    28 1   
    32    13    44 1   
    33    13    45 1   
    34    14    15 ar  
    35    14    19 ar  
    36    14    61 1   
    37    15    16 ar  
    38    15    49 1   
    39    16    17 ar  
    40    16    50 1   
    41    17    18 ar  
    42    17    51 1   
    43    18    19 ar  
    44    18    27 1   
    45    19    20 1   
    46    20    21 1   
    47    21    22 1   
    48    21    27 2   
    49    22    52 1   
    50    28    32 1   
    51    28    60 1   
    52    29    30 1   
    53    29    53 1   
    54    29    54 1   
    55    29    60 1   
    56    30    55 1   
    57    30    56 1   
    58    30    57 1   
    59    31    60 2   
    60    32    58 1   
    61    32    59 1   
    62    46    61 1   
    63    47    61 1   
    64    48    61 1   
@<TRIPOS>SUBSTRUCTURE
     1 5X4         1 TEMP              0 ****  ****    0 ROOT
