@<TRIPOS>MOLECULE
5XA
   22    21     1     0     0
SMALL
bcc


@<TRIPOS>ATOM
      1 O8           0.0000     0.0000     0.0000 oh         1 5XA      -0.428100
      2 N7           1.4160     0.0000     0.0000 ns         1 5XA      -0.038400
      3 C6           2.0900     0.0000     1.1680 c          1 5XA       0.566100
      4 O9           1.4840     0.0000     2.2170 o          1 5XA      -0.615100
      5 C5           3.5980    -0.0010     1.1670 c3         1 5XA      -0.092400
      6 C4           4.1080    -0.0010     2.6090 c3         1 5XA      -0.002400
      7 C3           5.6370    -0.0010     2.6090 c3         1 5XA      -0.039400
      8 C2           6.1480    -0.0000     4.0520 c3         1 5XA      -0.052200
      9 N1           7.6160    -0.0010     4.0510 nz         1 5XA       0.086400
     10 H1          -0.3140    -0.0420    -0.8880 ho         1 5XA       0.403000
     11 H2           1.9170     0.0160    -0.8670 hn         1 5XA       0.154500
     12 H3           3.9580    -0.8860     0.6570 hc         1 5XA       0.029700
     13 H4           3.9590     0.8830     0.6560 hc         1 5XA       0.029700
     14 H5           3.7470     0.8840     3.1200 hc         1 5XA       0.044700
     15 H6           3.7470    -0.8850     3.1200 hc         1 5XA       0.044700
     16 H7           5.9980     0.8840     2.0980 hc         1 5XA       0.030700
     17 H8           5.9980    -0.8850     2.0990 hc         1 5XA       0.030700
     18 H9           5.7870    -0.8840     4.5630 hx         1 5XA       0.088700
     19 H10          5.7880     0.8840     4.5620 hx         1 5XA       0.088700
     20 H11          7.9500     0.8160     3.5790 hn         1 5XA       0.223133
     21 H12          7.9500    -0.0010     4.9950 hn         1 5XA       0.223133
     22 H13          7.9500    -0.8180     3.5800 hn         1 5XA       0.223133
@<TRIPOS>BOND
     1     1     2 1   
     2     1    10 1   
     3     2     3 1   
     4     2    11 1   
     5     3     4 2   
     6     3     5 1   
     7     5     6 1   
     8     5    12 1   
     9     5    13 1   
    10     6     7 1   
    11     6    14 1   
    12     6    15 1   
    13     7     8 1   
    14     7    16 1   
    15     7    17 1   
    16     8     9 1   
    17     8    18 1   
    18     8    19 1   
    19     9    20 1   
    20     9    21 1   
    21     9    22 1   
@<TRIPOS>SUBSTRUCTURE
     1 5XA         1 TEMP              0 ****  ****    0 ROOT
