@<TRIPOS>MOLECULE
5XB
   16    16     1     0     0
SMALL
bcc


@<TRIPOS>ATOM
      1 C2           0.0000     0.0000     0.0000 c3         1 5XB       0.172600
      2 C4           0.6570    -0.5580     2.2770 c3         1 5XB       0.001500
      3 C5           2.0360     0.0000     1.8260 c3         1 5XB       0.138700
      4 S1           1.8330     0.0000     0.0000 ss         1 5XB      -0.519200
      5 C4A          0.4150    -0.2160     3.7240 c          1 5XB       0.983600
      6 O42         -0.2940     0.7190     4.0120 o          1 5XB      -0.901300
      7 C2A         -0.5260     1.1990    -0.7470 c          1 5XB       1.001600
      8 O21         -1.8380     1.3010    -1.0140 o          1 5XB      -0.893300
      9 O22          0.2330     2.0680    -1.1050 o          1 5XB      -0.893300
     10 N3          -0.3710     0.0760     1.4320 n7         1 5XB      -0.524200
     11 H1          -0.3750    -0.9180    -0.4360 h2         1 5XB       0.008700
     12 H2           0.6340    -1.6320     2.1390 h1         1 5XB      -0.002300
     13 H3           2.1880     1.0060     2.1990 h1         1 5XB       0.036700
     14 H4           2.8390    -0.6620     2.1260 h1         1 5XB       0.036700
     15 H7          -1.2490    -0.3840     1.5740 hn         1 5XB       0.253800
     16 O41          0.9860    -0.9500     4.6920 o          1 5XB      -0.901300
@<TRIPOS>BOND
     1     1     4 1   
     2     1     7 1   
     3     1    10 1   
     4     1    11 1   
     5     2     3 1   
     6     2     5 1   
     7     2    10 1   
     8     2    12 1   
     9     3     4 1   
    10     3    13 1   
    11     3    14 1   
    12     5     6 1   
    13     5    16 1   
    14     7     8 1   
    15     7     9 1   
    16    10    15 1   
@<TRIPOS>SUBSTRUCTURE
     1 5XB         1 TEMP              0 ****  ****    0 ROOT
