@<TRIPOS>MOLECULE
molecule
   16    16     1     0     0
SMALL
bcc


@<TRIPOS>ATOM
      1 C2           0.0000     0.0000     0.0000 c3         1 5XB       0.213600
      2 C4           0.6570    -0.5580     2.2770 c3         1 5XB       0.052500
      3 C5           2.0360     0.0000     1.8260 c3         1 5XB       0.078700
      4 S1           1.8330     0.0000     0.0000 ss         1 5XB      -0.487200
      5 C4A          0.4150    -0.2160     3.7240 c          1 5XB       0.899600
      6 O42         -0.2940     0.7190     4.0120 o          1 5XB      -0.852300
      7 C2A         -0.5260     1.1990    -0.7470 c          1 5XB       0.916600
      8 O21         -1.8380     1.3010    -1.0140 o          1 5XB      -0.847300
      9 O22          0.2330     2.0680    -1.1050 o          1 5XB      -0.847300
     10 N3          -0.3710     0.0760     1.4320 n7         1 5XB      -0.766200
     11 H1          -0.3750    -0.9180    -0.4360 h2         1 5XB       0.014700
     12 H2           0.6340    -1.6320     2.1390 h1         1 5XB       0.005700
     13 H3           2.1880     1.0060     2.1990 h1         1 5XB       0.058700
     14 H4           2.8390    -0.6620     2.1260 h1         1 5XB       0.058700
     15 H7          -1.2490    -0.3840     1.5740 hn         1 5XB       0.353800
     16 O41          0.9860    -0.9500     4.6920 o          1 5XB      -0.852300
@<TRIPOS>BOND
     1     9     7 1
     2     8     7 1
     3     7     1 1
     4    10     1 1
     5    10     2 1
     6     1     4 1
     7     6     5 1
     8     2     5 1
     9     2     3 1
    10     5    16 1
    11     4     3 1
    12     1    11 1
    13     2    12 1
    14     3    13 1
    15     3    14 1
    16    10    15 1
@<TRIPOS>SUBSTRUCTURE
     1 5XB         1 TEMP              0 ****  ****    0 ROOT
