@<TRIPOS>MOLECULE
molecule
   17    18     1     0     0
SMALL
bcc


@<TRIPOS>ATOM
      1 O01          0.0000     0.0000     0.0000 os         1 5XC      -0.325900
      2 O02          0.7230     0.0010     2.1470 os         1 5XC      -0.322900
      3 O03          5.8150    -0.0030    -1.6060 o          1 5XC      -0.525100
      4 C04          1.3650     0.0000     0.0000 ca         1 5XC       0.032100
      5 C05          1.8100     0.0000     1.3240 ca         1 5XC       0.082100
      6 C06          2.2780    -0.0010    -1.0340 ca         1 5XC      -0.073000
      7 C07         -0.3840    -0.4130     1.3250 c3         1 5XC       0.331200
      8 C08          3.1710     0.0000     1.6020 ca         1 5XC      -0.132000
      9 C09          3.6500    -0.0010    -0.7540 ca         1 5XC      -0.202600
     10 C10          4.0880     0.0000     0.5750 ca         1 5XC      -0.060000
     11 C11          4.6270    -0.0020    -1.8520 c          1 5XC       0.586500
     12 H2           1.9350    -0.0020    -2.0620 ha         1 5XC       0.146000
     13 H3          -1.2830     0.1110     1.6270 h2         1 5XC       0.074700
     14 H4           3.5120     0.0020     2.6300 ha         1 5XC       0.150000
     15 H5           5.1480     0.0000     0.7960 ha         1 5XC       0.162000
     16 H6           4.2860    -0.0030    -2.8800 h4         1 5XC       0.003200
     17 H1          -0.4850    -1.4910     1.3590 h2         1 5XC       0.074700
@<TRIPOS>BOND
     1     3    11 2   
     2     1     4 1   
     3     1     7 1   
     4     6     4 ar  
     5     6     9 ar  
     6     4     5 ar  
     7    11     9 1   
     8     7     2 1   
     9     9    10 ar  
    10     5     2 1   
    11     5     8 ar  
    12    10     8 ar  
    13     6    12 1   
    14     7    13 1   
    15     8    14 1   
    16    10    15 1   
    17    11    16 1   
    18     7    17 1   
@<TRIPOS>SUBSTRUCTURE
     1 5XC         1 TEMP              0 ****  ****    0 ROOT
