@<TRIPOS>MOLECULE
5XD
   47    49     1     0     0
SMALL
bcc


@<TRIPOS>ATOM
      1 CAA          0.0000     0.0000     0.0000 c3         1 5XD       0.011900
      2 CAN          1.5300     0.0000     0.0000 c3         1 5XD       0.020900
      3 CAQ          2.0320     0.0000     1.4220 ca         1 5XD      -0.031300
      4 CAI          2.2630    -1.1970     2.0730 ca         1 5XD      -0.131500
      5 CAK          2.7230    -1.1970     3.3760 ca         1 5XD       0.010500
      6 CAH          2.2680     1.1980     2.0710 ca         1 5XD      -0.131500
      7 CAJ          2.7280     1.1980     3.3740 ca         1 5XD       0.010500
      8 CAR          2.9530     0.0000     4.0280 ca         1 5XD      -0.163500
      9 SAZ          3.5400     0.0010     5.6890 sy         1 5XD       1.042200
     10 OAF          3.1610     1.2510     6.2480 o          1 5XD      -0.590300
     11 OAG          3.1600    -1.2490     6.2490 o          1 5XD      -0.590300
     12 NAO          5.1950     0.0010     5.6250 nu         1 5XD      -0.377500
     13 CAS          5.8720     1.0560     4.9990 ca         1 5XD       0.041600
     14 CAL          5.3760     2.3460     5.0880 ca         1 5XD      -0.135000
     15 CAV          6.0480     3.3900     4.4680 ca         1 5XD      -0.155400
     16 NAX          5.8070     4.7610     4.3770 n          1 5XD       0.051000
     17 CAC          4.6770     5.4730     4.9780 c3         1 5XD       0.086300
     18 CAU          6.7890     5.3150     3.6430 c          1 5XD       0.580500
     19 OAE          6.8780     6.5000     3.3730 o          1 5XD      -0.724500
     20 NAY          7.6570     4.3640     3.2520 n          1 5XD       0.045000
     21 CAD          8.8570     4.5790     2.4390 c3         1 5XD       0.086300
     22 CAW          7.2210     3.1380     3.7550 ca         1 5XD      -0.129400
     23 CAM          7.7160     1.8450     3.6680 ca         1 5XD      -0.178000
     24 CAT          7.0470     0.8060     4.2910 ca         1 5XD       0.124100
     25 OAP          7.5330    -0.4620     4.2060 os         1 5XD      -0.309900
     26 CAB          8.7360    -0.6480     3.4570 c3         1 5XD       0.247700
     27 H1          -0.3610    -0.8880     0.5040 hc         1 5XD       0.004700
     28 H2          -0.3610     0.0080    -1.0210 hc         1 5XD       0.004700
     29 H3          -0.3610     0.8800     0.5180 hc         1 5XD       0.004700
     30 H4           1.8910     0.8850    -0.5110 hc         1 5XD       0.018700
     31 H5           1.8910    -0.8850    -0.5110 hc         1 5XD       0.018700
     32 H6           2.0820    -2.1350     1.5620 ha         1 5XD       0.113000
     33 H7           2.9010    -2.1350     3.8880 ha         1 5XD       0.122000
     34 H8           2.0910     2.1360     1.5590 ha         1 5XD       0.113000
     35 H9           2.9110     2.1360     3.8840 ha         1 5XD       0.122000
     36 H10          5.7120    -0.7320     6.0680 hn         1 5XD       0.352800
     37 H11          4.5090     2.5510     5.7050 ha         1 5XD       0.180000
     38 H12          4.9020     6.5320     5.0240 h1         1 5XD       0.020367
     39 H13          3.7900     5.3180     4.3760 h1         1 5XD       0.020367
     40 H14          4.5050     5.0970     5.9790 h1         1 5XD       0.020367
     41 H15          8.7840     4.0000     1.5270 h1         1 5XD       0.018367
     42 H16          8.9420     5.6310     2.1930 h1         1 5XD       0.018367
     43 H17          9.7320     4.2670     2.9970 h1         1 5XD       0.018367
     44 H18          8.6290     1.6510     3.1180 ha         1 5XD       0.125000
     45 H19          8.5760    -0.3310     2.4330 h1         1 5XD      -0.002300
     46 H20          9.0130    -1.6950     3.4720 h1         1 5XD      -0.002300
     47 H21          9.5310    -0.0580     3.8980 h1         1 5XD      -0.002300
@<TRIPOS>BOND
     1     1     2 1   
     2     1    27 1   
     3     1    28 1   
     4     1    29 1   
     5     2     3 1   
     6     2    30 1   
     7     2    31 1   
     8     3     4 ar  
     9     3     6 ar  
    10     4     5 ar  
    11     4    32 1   
    12     5     8 ar  
    13     5    33 1   
    14     6     7 ar  
    15     6    34 1   
    16     7     8 ar  
    17     7    35 1   
    18     8     9 1   
    19     9    10 2   
    20     9    11 2   
    21     9    12 1   
    22    12    13 1   
    23    12    36 1   
    24    13    14 ar  
    25    13    24 ar  
    26    14    15 ar  
    27    14    37 1   
    28    15    16 1   
    29    15    22 ar  
    30    16    17 1   
    31    16    18 1   
    32    17    38 1   
    33    17    39 1   
    34    17    40 1   
    35    18    19 2   
    36    18    20 1   
    37    20    21 1   
    38    20    22 1   
    39    21    41 1   
    40    21    42 1   
    41    21    43 1   
    42    22    23 ar  
    43    23    24 ar  
    44    23    44 1   
    45    24    25 1   
    46    25    26 1   
    47    26    45 1   
    48    26    46 1   
    49    26    47 1   
@<TRIPOS>SUBSTRUCTURE
     1 5XD         1 TEMP              0 ****  ****    0 ROOT
