@<TRIPOS>MOLECULE
molecule
   47    49     1     0     0
SMALL
bcc


@<TRIPOS>ATOM
      1 CAA          0.0000     0.0000     0.0000 c3         1 5XD      -0.087100
      2 CAN          1.5300     0.0000     0.0000 c3         1 5XD      -0.048100
      3 CAQ          2.0320     0.0000     1.4220 ca         1 5XD      -0.022300
      4 CAI          2.2630    -1.1970     2.0730 ca         1 5XD      -0.150500
      5 CAK          2.7230    -1.1970     3.3760 ca         1 5XD      -0.020500
      6 CAH          2.2680     1.1980     2.0710 ca         1 5XD      -0.150500
      7 CAJ          2.7280     1.1980     3.3740 ca         1 5XD      -0.020500
      8 CAR          2.9530     0.0000     4.0280 ca         1 5XD      -0.317500
      9 SAZ          3.5400     0.0010     5.6890 sy         1 5XD       1.428200
     10 OAF          3.1610     1.2510     6.2480 o          1 5XD      -0.637800
     11 OAG          3.1600    -1.2490     6.2490 o          1 5XD      -0.637800
     12 NAO          5.1950     0.0010     5.6250 nu         1 5XD      -0.755500
     13 CAS          5.8720     1.0560     4.9990 ca         1 5XD       0.128600
     14 CAL          5.3760     2.3460     5.0880 ca         1 5XD      -0.153000
     15 CAV          6.0480     3.3900     4.4680 ca         1 5XD      -0.011400
     16 NAX          5.8070     4.7610     4.3770 n          1 5XD      -0.356000
     17 CAC          4.6770     5.4730     4.9780 c3         1 5XD       0.117300
     18 CAU          6.7890     5.3150     3.6430 c          1 5XD       0.801500
     19 OAE          6.8780     6.5000     3.3730 o          1 5XD      -0.664500
     20 NAY          7.6570     4.3640     3.2520 n          1 5XD      -0.359000
     21 CAD          8.8570     4.5790     2.4390 c3         1 5XD       0.117300
     22 CAW          7.2210     3.1380     3.7550 ca         1 5XD       0.018600
     23 CAM          7.7160     1.8450     3.6680 ca         1 5XD      -0.203000
     24 CAT          7.0470     0.8060     4.2910 ca         1 5XD       0.124100
     25 OAP          7.5330    -0.4620     4.2060 os         1 5XD      -0.326900
     26 CAB          8.7360    -0.6480     3.4570 c3         1 5XD       0.128700
     27 H1          -0.3610    -0.8880     0.5040 hc         1 5XD       0.039033
     28 H2          -0.3610     0.0080    -1.0210 hc         1 5XD       0.039033
     29 H3          -0.3610     0.8800     0.5180 hc         1 5XD       0.039033
     30 H4           1.8910     0.8850    -0.5110 hc         1 5XD       0.051700
     31 H5           1.8910    -0.8850    -0.5110 hc         1 5XD       0.051700
     32 H6           2.0820    -2.1350     1.5620 ha         1 5XD       0.138000
     33 H7           2.9010    -2.1350     3.8880 ha         1 5XD       0.149500
     34 H8           2.0910     2.1360     1.5590 ha         1 5XD       0.138000
     35 H9           2.9110     2.1360     3.8840 ha         1 5XD       0.149500
     36 H10          5.7120    -0.7320     6.0680 hn         1 5XD       0.473800
     37 H11          4.5090     2.5510     5.7050 ha         1 5XD       0.194000
     38 H12          4.9020     6.5320     5.0240 h1         1 5XD       0.054700
     39 H13          3.7900     5.3180     4.3760 h1         1 5XD       0.054700
     40 H14          4.5050     5.0970     5.9790 h1         1 5XD       0.054700
     41 H15          8.7840     4.0000     1.5270 h1         1 5XD       0.052700
     42 H16          8.9420     5.6310     2.1930 h1         1 5XD       0.052700
     43 H17          9.7320     4.2670     2.9970 h1         1 5XD       0.052700
     44 H18          8.6290     1.6510     3.1180 ha         1 5XD       0.144000
     45 H19          8.5760    -0.3310     2.4330 h1         1 5XD       0.043033
     46 H20          9.0130    -1.6950     3.4720 h1         1 5XD       0.043033
     47 H21          9.5310    -0.0580     3.8980 h1         1 5XD       0.043033
@<TRIPOS>BOND
     1     1     2 1   
     2    19    18 2   
     3    21    20 1   
     4     2     3 1   
     5    18    20 1   
     6    18    16 1   
     7    20    22 1   
     8     3     4 ar  
     9     3     6 ar  
    10    17    16 1   
    11    16    15 1   
    12     4     5 ar  
    13    22    15 ar  
    14    22    23 ar  
    15     6     7 ar  
    16    15    14 ar  
    17    23    24 ar  
    18     5     8 ar  
    19    14    13 ar  
    20     7     8 ar  
    21    26    25 1   
    22     8     9 1   
    23    24    13 ar  
    24    24    25 1   
    25    13    12 1   
    26    11     9 2   
    27     9    12 1   
    28     9    10 2   
    29     1    27 1   
    30     1    28 1   
    31     1    29 1   
    32     2    30 1   
    33     2    31 1   
    34     4    32 1   
    35     5    33 1   
    36     6    34 1   
    37     7    35 1   
    38    12    36 1   
    39    14    37 1   
    40    17    38 1   
    41    17    39 1   
    42    17    40 1   
    43    21    41 1   
    44    21    42 1   
    45    21    43 1   
    46    23    44 1   
    47    26    45 1   
    48    26    46 1   
    49    26    47 1   
@<TRIPOS>SUBSTRUCTURE
     1 5XD         1 TEMP              0 ****  ****    0 ROOT
