@<TRIPOS>MOLECULE
molecule
   44    46     1     0     0
SMALL
bcc


@<TRIPOS>ATOM
      1 CAZ          0.0000     0.0000     0.0000 c3         1 5XE      -0.082800
      2 CAT          1.5070     0.0000     0.0000 ca         1 5XE       0.028700
      3 CAU          2.1980     0.0000     1.1960 ca         1 5XE      -0.129000
      4 CAV          3.5810    -0.0060     1.1970 ca         1 5XE       0.038100
      5 Br           4.5270    -0.0060     2.8340 br         1 5XE      -0.083100
      6 CAW          4.2720    -0.0120    -0.0010 ca         1 5XE      -0.134000
      7 CAX          3.5800    -0.0120    -1.1990 ca         1 5XE      -0.020000
      8 CAR          2.1980    -0.0060    -1.1980 ca         1 5XE      -0.305500
      9 SAA          1.3160    -0.0150    -2.7240 sy         1 5XE       1.431200
     10 OAC          2.2960     0.0240    -3.7530 o          1 5XE      -0.635800
     11 OAD          0.3400    -1.0410    -2.6180 o          1 5XE      -0.635800
     12 NAB          0.4850     1.4150    -2.8160 nu         1 5XE      -0.755500
     13 CAE          1.1780     2.6320    -2.7930 ca         1 5XE       0.124600
     14 CAF          2.4170     2.7340    -3.4050 ca         1 5XE      -0.147000
     15 CAG          3.1020     3.9400    -3.3820 ca         1 5XE      -0.008400
     16 NAL          4.3330     4.3490    -3.8940 n          1 5XE      -0.356000
     17 CAP          5.2710     3.5110    -4.6450 c3         1 5XE       0.117300
     18 CAM          4.5150     5.6440    -3.5790 c          1 5XE       0.802500
     19 OAO          5.4900     6.3090    -3.8770 o          1 5XE      -0.662500
     20 NAN          3.4540     6.0960    -2.8850 n          1 5XE      -0.360000
     21 CAQ          3.2820     7.4560    -2.3670 c3         1 5XE       0.117300
     22 CAH          2.5430     5.0480    -2.7430 ca         1 5XE       0.020600
     23 CAI          1.3030     4.9440    -2.1310 ca         1 5XE      -0.202000
     24 CAJ          0.6180     3.7420    -2.1600 ca         1 5XE       0.121100
     25 OAK         -0.6010     3.6400    -1.5650 os         1 5XE      -0.330900
     26 CAS         -1.1150     4.8140    -0.9340 c3         1 5XE       0.128700
     27 H1          -0.3610    -0.9650    -0.3340 hc         1 5XE       0.064700
     28 H2          -0.3610     0.7720    -0.6690 hc         1 5XE       0.064700
     29 H3          -0.3610     0.1940     1.0030 hc         1 5XE       0.064700
     30 H4           1.6560     0.0040     2.1340 ha         1 5XE       0.150000
     31 H5           5.3560    -0.0170    -0.0020 ha         1 5XE       0.150000
     32 H6           4.1210    -0.0170    -2.1370 ha         1 5XE       0.159000
     33 H7          -0.5140     1.4090    -2.8840 hn         1 5XE       0.473800
     34 H8           2.8180     1.8930    -3.9580 ha         1 5XE       0.193000
     35 H9           4.7300     2.9480    -5.3960 h1         1 5XE       0.054700
     36 H10          5.7660     2.8250    -3.9680 h1         1 5XE       0.054700
     37 H11          6.0100     4.1380    -5.1280 h1         1 5XE       0.054700
     38 H12          4.1420     8.0560    -2.6370 h1         1 5XE       0.052700
     39 H13          2.3880     7.8940    -2.7920 h1         1 5XE       0.052700
     40 H14          3.1900     7.4220    -1.2880 h1         1 5XE       0.052700
     41 H15          0.8670     5.8050    -1.6380 ha         1 5XE       0.144000
     42 H16         -2.0860     4.5970    -0.5050 h1         1 5XE       0.044033
     43 H17         -1.2140     5.6050    -1.6680 h1         1 5XE       0.044033
     44 H18         -0.4370     5.1310    -0.1510 h1         1 5XE       0.044033
@<TRIPOS>BOND
     1     5     4 1   
     2     4     6 ar  
     3     4     3 ar  
     4     6     7 ar  
     5     3     2 ar  
     6     7     8 ar  
     7     2     8 ar  
     8     2     1 1   
     9     8     9 1   
    10    10     9 2   
    11     9    11 2   
    12     9    12 1   
    13    12    13 1   
    14    13    14 ar  
    15    13    24 ar  
    16    25    24 1   
    17    25    26 1   
    18    14    15 ar  
    19    24    23 ar  
    20    15    16 1   
    21    15    22 ar  
    22    17    16 1   
    23    23    22 ar  
    24    16    18 1   
    25    22    20 1   
    26    20    18 1   
    27    20    21 1   
    28    18    19 2   
    29     1    27 1   
    30     1    28 1   
    31     1    29 1   
    32     3    30 1   
    33     6    31 1   
    34     7    32 1   
    35    12    33 1   
    36    14    34 1   
    37    17    35 1   
    38    17    36 1   
    39    17    37 1   
    40    21    38 1   
    41    21    39 1   
    42    21    40 1   
    43    23    41 1   
    44    26    42 1   
    45    26    43 1   
    46    26    44 1   
@<TRIPOS>SUBSTRUCTURE
     1 5XE         1 TEMP              0 ****  ****    0 ROOT
