@<TRIPOS>MOLECULE
molecule
   52    55     1     0     0
SMALL
bcc


@<TRIPOS>ATOM
      1 CAO          0.0000     0.0000     0.0000 c3         1 5XF       0.149800
      2 CAP          1.5500     0.0000     0.0000 c3         1 5XF      -0.090900
      3 CAQ          1.8950     0.0000     1.5070 c3         1 5XF      -0.090900
      4 CAR          0.6410    -0.5570     2.2070 c3         1 5XF       0.149800
      5 NAN         -0.3400    -0.8780     1.1480 nh         1 5XF      -0.597000
      6 CAA         -1.6490    -0.6450     1.5890 ca         1 5XF       0.034600
      7 CAB         -2.0150     0.6150     2.0350 ca         1 5XF      -0.143000
      8 CAC         -3.3120     0.8450     2.4700 ca         1 5XF      -0.019400
      9 NAH         -3.9670     1.9730     2.9640 n          1 5XF      -0.362000
     10 CAL         -3.3700     3.2980     3.1510 c3         1 5XF       0.119300
     11 CAI         -5.2400     1.6360     3.2410 c          1 5XF       0.802500
     12 OAK         -6.0830     2.3910     3.6880 o          1 5XF      -0.669500
     13 NAJ         -5.4410     0.3380     2.9470 n          1 5XF      -0.357000
     14 CAM         -6.7000    -0.3930     3.1110 c3         1 5XF       0.117300
     15 CAD         -4.2460    -0.1920     2.4590 ca         1 5XF       0.017600
     16 CAE         -3.8800    -1.4530     2.0120 ca         1 5XF      -0.139000
     17 CAF         -2.5860    -1.6800     1.5730 ca         1 5XF       0.094600
     18 NAG         -2.2150    -2.9520     1.1150 ns         1 5XF      -0.460100
     19 CAS         -3.1500    -3.7930     0.6290 c          1 5XF       0.676700
     20 OAU         -4.2970    -3.4130     0.4940 o          1 5XF      -0.583100
     21 CAT         -2.7810    -5.1730     0.2620 ca         1 5XF      -0.185600
     22 CAV         -1.4650    -5.6140     0.4160 ca         1 5XF      -0.066000
     23 CAW         -1.1260    -6.9040     0.0710 ca         1 5XF      -0.179000
     24 CAX         -2.0880    -7.7680    -0.4280 ca         1 5XF      -0.063000
     25 CAY         -3.3930    -7.3460    -0.5860 ca         1 5XF      -0.235000
     26 CAZ         -3.7510    -6.0520    -0.2380 ca         1 5XF       0.200100
     27 OBA         -5.0330    -5.6360    -0.3930 os         1 5XF      -0.284900
     28 CBB         -5.9640    -6.5830    -0.9200 c3         1 5XF       0.121700
     29 H1          -0.3810     1.0010     0.1610 h1         1 5XF       0.048450
     30 H2          -0.3810    -0.4170    -0.9240 h1         1 5XF       0.048450
     31 H3           1.9310     0.8940    -0.4790 hc         1 5XF       0.050200
     32 H4           1.9310    -0.8940    -0.4790 hc         1 5XF       0.050200
     33 H5           2.7460    -0.6430     1.6960 hc         1 5XF       0.050200
     34 H6           2.0960     1.0090     1.8450 hc         1 5XF       0.050200
     35 H7           0.8950    -1.4540     2.7590 h1         1 5XF       0.048450
     36 H8           0.2300     0.1910     2.8750 h1         1 5XF       0.048450
     37 H9          -1.3080     1.4340     1.9820 ha         1 5XF       0.138000
     38 H10         -2.5210     3.2200     3.8190 h1         1 5XF       0.050700
     39 H11         -3.0410     3.6840     2.1930 h1         1 5XF       0.050700
     40 H12         -4.1050     3.9690     3.5770 h1         1 5XF       0.050700
     41 H13         -6.5420    -1.2420     3.7660 h1         1 5XF       0.054367
     42 H14         -7.0440    -0.7420     2.1450 h1         1 5XF       0.054367
     43 H15         -7.4450     0.2630     3.5450 h1         1 5XF       0.054367
     44 H16         -4.6060    -2.2570     2.0000 ha         1 5XF       0.184000
     45 H17         -1.2600    -3.2470     1.1750 hn         1 5XF       0.339500
     46 H18         -0.7100    -4.9420     0.8060 ha         1 5XF       0.133000
     47 H19         -0.1050    -7.2450     0.1920 ha         1 5XF       0.135000
     48 H20         -1.8130    -8.7800    -0.6990 ha         1 5XF       0.133000
     49 H21         -4.1390    -8.0290    -0.9750 ha         1 5XF       0.142000
     50 H22         -5.6380    -6.9000    -1.9040 h1         1 5XF       0.043367
     51 H23         -6.9420    -6.1240    -0.9940 h1         1 5XF       0.043367
     52 H24         -6.0160    -7.4420    -0.2630 h1         1 5XF       0.043367
@<TRIPOS>BOND
     1    28    27 1
     2    25    24 ar
     3    25    26 ar
     4    24    23 ar
     5    27    26 1
     6    26    21 ar
     7    23    22 ar
     8     2     3 1
     9     2     1 1
    10     3     4 1
    11    22    21 ar
    12    21    19 1
    13     1     5 1
    14     4     5 1
    15     5     6 1
    16    19    18 1
    17    19    20 2
    18    18    17 1
    19     6    17 ar
    20     6     7 ar
    21    17    16 ar
    22     7     8 ar
    23    16    15 ar
    24     8    15 ar
    25     8     9 1
    26    15    13 1
    27     9    10 1
    28     9    11 1
    29    13    11 1
    30    13    14 1
    31    11    12 2
    32     1    29 1
    33     1    30 1
    34     2    31 1
    35     2    32 1
    36     3    33 1
    37     3    34 1
    38     4    35 1
    39     4    36 1
    40     7    37 1
    41    10    38 1
    42    10    39 1
    43    10    40 1
    44    14    41 1
    45    14    42 1
    46    14    43 1
    47    16    44 1
    48    18    45 1
    49    22    46 1
    50    23    47 1
    51    24    48 1
    52    25    49 1
    53    28    50 1
    54    28    51 1
    55    28    52 1
@<TRIPOS>SUBSTRUCTURE
     1 5XF         1 TEMP              0 ****  ****    0 ROOT
