@<TRIPOS>MOLECULE
5XF
   52    55     1     0     0
SMALL
bcc


@<TRIPOS>ATOM
      1 CAO          0.0000     0.0000     0.0000 c3         1 5XF       0.142300
      2 CAP          1.5500     0.0000     0.0000 c3         1 5XF      -0.030400
      3 CAQ          1.8950     0.0000     1.5070 c3         1 5XF      -0.030400
      4 CAR          0.6410    -0.5570     2.2070 c3         1 5XF       0.142300
      5 NAN         -0.3400    -0.8780     1.1480 nh         1 5XF      -0.409000
      6 CAA         -1.6490    -0.6450     1.5890 ca         1 5XF      -0.029400
      7 CAB         -2.0150     0.6150     2.0350 ca         1 5XF      -0.102000
      8 CAC         -3.3120     0.8450     2.4700 ca         1 5XF      -0.161400
      9 NAH         -3.9670     1.9730     2.9640 n          1 5XF       0.044000
     10 CAL         -3.3700     3.2980     3.1510 c3         1 5XF       0.086300
     11 CAI         -5.2400     1.6360     3.2410 c          1 5XF       0.582500
     12 OAK         -6.0830     2.3910     3.6880 o          1 5XF      -0.725500
     13 NAJ         -5.4410     0.3380     2.9470 n          1 5XF       0.050000
     14 CAM         -6.7000    -0.3930     3.1110 c3         1 5XF       0.083300
     15 CAD         -4.2460    -0.1920     2.4590 ca         1 5XF      -0.123400
     16 CAE         -3.8800    -1.4530     2.0120 ca         1 5XF      -0.108000
     17 CAF         -2.5860    -1.6800     1.5730 ca         1 5XF      -0.052400
     18 NAG         -2.2150    -2.9520     1.1150 ns         1 5XF      -0.020100
     19 CAS         -3.1500    -3.7930     0.6290 c          1 5XF       0.588700
     20 OAU         -4.2970    -3.4130     0.4940 o          1 5XF      -0.631100
     21 CAT         -2.7810    -5.1730     0.2620 ca         1 5XF      -0.208600
     22 CAV         -1.4650    -5.6140     0.4160 ca         1 5XF      -0.042000
     23 CAW         -1.1260    -6.9040     0.0710 ca         1 5XF      -0.157000
     24 CAX         -2.0880    -7.7680    -0.4280 ca         1 5XF      -0.027000
     25 CAY         -3.3930    -7.3460    -0.5860 ca         1 5XF      -0.229000
     26 CAZ         -3.7510    -6.0520    -0.2380 ca         1 5XF       0.218100
     27 OBA         -5.0330    -5.6360    -0.3930 os         1 5XF      -0.259900
     28 CBB         -5.9640    -6.5830    -0.9200 c3         1 5XF       0.232700
     29 H1          -0.3810     1.0010     0.1610 h1         1 5XF       0.019200
     30 H2          -0.3810    -0.4170    -0.9240 h1         1 5XF       0.019200
     31 H3           1.9310     0.8940    -0.4790 hc         1 5XF       0.019450
     32 H4           1.9310    -0.8940    -0.4790 hc         1 5XF       0.019450
     33 H5           2.7460    -0.6430     1.6960 hc         1 5XF       0.019450
     34 H6           2.0960     1.0090     1.8450 hc         1 5XF       0.019450
     35 H7           0.8950    -1.4540     2.7590 h1         1 5XF       0.019200
     36 H8           0.2300     0.1910     2.8750 h1         1 5XF       0.019200
     37 H9          -1.3080     1.4340     1.9820 ha         1 5XF       0.116000
     38 H10         -2.5210     3.2200     3.8190 h1         1 5XF       0.017700
     39 H11         -3.0410     3.6840     2.1930 h1         1 5XF       0.017700
     40 H12         -4.1050     3.9690     3.5770 h1         1 5XF       0.017700
     41 H13         -6.5420    -1.2420     3.7660 h1         1 5XF       0.021367
     42 H14         -7.0440    -0.7420     2.1450 h1         1 5XF       0.021367
     43 H15         -7.4450     0.2630     3.5450 h1         1 5XF       0.021367
     44 H16         -4.6060    -2.2570     2.0000 ha         1 5XF       0.165000
     45 H17         -1.2600    -3.2470     1.1750 hn         1 5XF       0.186500
     46 H18         -0.7100    -4.9420     0.8060 ha         1 5XF       0.105000
     47 H19         -0.1050    -7.2450     0.1920 ha         1 5XF       0.109000
     48 H20         -1.8130    -8.7800    -0.6990 ha         1 5XF       0.100000
     49 H21         -4.1390    -8.0290    -0.9750 ha         1 5XF       0.126000
     50 H22         -5.6380    -6.9000    -1.9040 h1         1 5XF      -0.001633
     51 H23         -6.9420    -6.1240    -0.9940 h1         1 5XF      -0.001633
     52 H24         -6.0160    -7.4420    -0.2630 h1         1 5XF      -0.001633
@<TRIPOS>BOND
     1     1     2 1   
     2     1     5 1   
     3     1    29 1   
     4     1    30 1   
     5     2     3 1   
     6     2    31 1   
     7     2    32 1   
     8     3     4 1   
     9     3    33 1   
    10     3    34 1   
    11     4     5 1   
    12     4    35 1   
    13     4    36 1   
    14     5     6 1   
    15     6     7 ar  
    16     6    17 ar  
    17     7     8 ar  
    18     7    37 1   
    19     8     9 1   
    20     8    15 ar  
    21     9    10 1   
    22     9    11 1   
    23    10    38 1   
    24    10    39 1   
    25    10    40 1   
    26    11    12 2   
    27    11    13 1   
    28    13    14 1   
    29    13    15 1   
    30    14    41 1   
    31    14    42 1   
    32    14    43 1   
    33    15    16 ar  
    34    16    17 ar  
    35    16    44 1   
    36    17    18 1   
    37    18    19 1   
    38    18    45 1   
    39    19    20 2   
    40    19    21 1   
    41    21    22 ar  
    42    21    26 ar  
    43    22    23 ar  
    44    22    46 1   
    45    23    24 ar  
    46    23    47 1   
    47    24    25 ar  
    48    24    48 1   
    49    25    26 ar  
    50    25    49 1   
    51    26    27 1   
    52    27    28 1   
    53    28    50 1   
    54    28    51 1   
    55    28    52 1   
@<TRIPOS>SUBSTRUCTURE
     1 5XF         1 TEMP              0 ****  ****    0 ROOT
