@<TRIPOS>MOLECULE
5XG
   49    53     1     0     0
SMALL
bcc


@<TRIPOS>ATOM
      1 C2           0.0000     0.0000     0.0000 cc         1 5XG      -0.154100
      2 C5           0.7960    -0.0010     2.1490 ca         1 5XG       0.002000
      3 C6           0.6650    -0.0010     3.5530 ca         1 5XG      -0.079000
      4 C7          -0.5930    -0.0010     4.1140 cp         1 5XG      -0.001000
      5 C8          -1.7520    -0.0010     3.3160 ca         1 5XG      -0.119000
      6 C11         -0.7300    -0.0010     5.5910 cp         1 5XG      -0.115300
      7 C12         -0.0240    -0.9150     6.3670 ca         1 5XG       0.415200
      8 N13         -0.1420    -0.9170     7.6800 nb         1 5XG      -0.572000
      9 C15         -1.6590     0.8810     7.6220 ca         1 5XG      -0.200900
     10 C17         -1.5690     0.9260     6.2310 ca         1 5XG       0.058600
     11 C19         -3.7340     1.7050     5.7190 c3         1 5XG       0.116300
     12 C21         -4.0610     4.0800     5.0370 c3         1 5XG      -0.151000
     13 C23         -5.8350     5.2100     6.1810 c3         1 5XG       0.043000
     14 O26         -4.5170     5.2010     2.9450 o          1 5XG      -0.664500
     15 C27         -2.5510     4.2170     4.8750 c3         1 5XG      -0.001400
     16 N1          -0.8170     0.0060    -1.1200 nv         1 5XG      -0.496600
     17 N3           1.3440     0.0000     0.0000 na         1 5XG       0.534800
     18 N4           1.8210     0.0000     1.3150 nc         1 5XG      -0.444400
     19 C9          -1.6800     0.0000     1.9630 ca         1 5XG      -0.021000
     20 C10         -0.4230    -0.0010     1.3260 ca         1 5XG      -0.199000
     21 C14         -0.9260    -0.0640     8.3130 ca         1 5XG       0.413200
     22 Cl1         -2.6790     1.9990     8.4740 cl         1 5XG       0.001600
     23 N18         -2.2900     1.8620     5.4990 nh         1 5XG      -0.383000
     24 C20         -4.4980     2.6420     4.7800 c3         1 5XG      -0.001400
     25 C22         -4.4820     4.5140     6.4560 c3         1 5XG      -0.049400
     26 N24         -5.7690     5.6580     4.7840 ns         1 5XG      -0.206900
     27 C25         -4.7840     5.0300     4.1160 c          1 5XG       0.632500
     28 C28         -1.8500     3.2280     5.8110 c3         1 5XG       0.116300
     29 H1           1.5450    -0.0010     4.1850 ha         1 5XG       0.115000
     30 H2          -2.7240    -0.0010     3.7940 ha         1 5XG       0.113000
     31 H3           0.6310    -1.6320     5.8880 h4         1 5XG      -0.007900
     32 H4          -4.0190     0.6800     5.5150 h1         1 5XG       0.025450
     33 H5          -3.9710     1.9530     6.7460 h1         1 5XG       0.025450
     34 H6          -6.6500     4.5070     6.3090 h1         1 5XG       0.014700
     35 H7          -5.9590     6.0600     6.8400 h1         1 5XG       0.014700
     36 H8          -2.2520     5.2270     5.1280 hc         1 5XG       0.032950
     37 H9          -2.2770     3.9990     3.8500 hc         1 5XG       0.032950
     38 H10         -1.2570    -0.8410    -1.4220 hn         1 5XG       0.274800
     39 H11         -0.9590     0.8540    -1.6310 hn         1 5XG       0.274800
     40 H12          1.9180     0.0000    -0.8200 hn         1 5XG       0.137700
     41 H13         -2.5880     0.0000     1.3720 ha         1 5XG       0.099000
     42 H14         -0.9920    -0.1030     9.3930 h4         1 5XG      -0.011900
     43 H15         -5.5610     2.5490     4.9650 hc         1 5XG       0.032950
     44 H16         -4.2810     2.3770     3.7520 hc         1 5XG       0.032950
     45 H17         -4.6150     3.6530     7.0990 hc         1 5XG       0.037200
     46 H18         -3.7670     5.2130     6.8730 hc         1 5XG       0.037200
     47 H19         -6.3770     6.3440     4.3810 hn         1 5XG       0.193500
     48 H20         -2.1030     3.4620     6.8380 h1         1 5XG       0.025450
     49 H21         -0.7780     3.3010     5.6730 h1         1 5XG       0.025450
@<TRIPOS>BOND
     1     1    16 1   
     2     1    17 1   
     3     1    20 2   
     4     2     3 ar  
     5     2    18 2   
     6     2    20 ar  
     7     3     4 ar  
     8     3    29 1   
     9     4     5 ar  
    10     4     6 1   
    11     5    19 ar  
    12     5    30 1   
    13     6     7 ar  
    14     6    10 ar  
    15     7     8 ar  
    16     7    31 1   
    17     8    21 ar  
    18     9    10 ar  
    19     9    21 ar  
    20     9    22 1   
    21    10    23 1   
    22    11    23 1   
    23    11    24 1   
    24    11    32 1   
    25    11    33 1   
    26    12    15 1   
    27    12    24 1   
    28    12    25 1   
    29    12    27 1   
    30    13    25 1   
    31    13    26 1   
    32    13    34 1   
    33    13    35 1   
    34    14    27 2   
    35    15    28 1   
    36    15    36 1   
    37    15    37 1   
    38    16    38 1   
    39    16    39 1   
    40    17    18 1   
    41    17    40 1   
    42    19    20 ar  
    43    19    41 1   
    44    21    42 1   
    45    23    28 1   
    46    24    43 1   
    47    24    44 1   
    48    25    45 1   
    49    25    46 1   
    50    26    27 1   
    51    26    47 1   
    52    28    48 1   
    53    28    49 1   
@<TRIPOS>SUBSTRUCTURE
     1 5XG         1 TEMP              0 ****  ****    0 ROOT
