@<TRIPOS>MOLECULE
molecule
   49    53     1     0     0
SMALL
bcc


@<TRIPOS>ATOM
      1 C2           0.0000     0.0000     0.0000 cc         1 5XG       0.168900
      2 C5           0.7960    -0.0010     2.1490 ca         1 5XG      -0.030000
      3 C6           0.6650    -0.0010     3.5530 ca         1 5XG      -0.106000
      4 C7          -0.5930    -0.0010     4.1140 cp         1 5XG       0.003000
      5 C8          -1.7520    -0.0010     3.3160 ca         1 5XG      -0.134000
      6 C11         -0.7300    -0.0010     5.5910 cp         1 5XG      -0.129300
      7 C12         -0.0240    -0.9150     6.3670 ca         1 5XG       0.433200
      8 N13         -0.1420    -0.9170     7.6800 nb         1 5XG      -0.680000
      9 C15         -1.6590     0.8810     7.6220 ca         1 5XG      -0.139900
     10 C17         -1.5690     0.9260     6.2310 ca         1 5XG       0.141600
     11 C19         -3.7340     1.7050     5.7190 c3         1 5XG       0.154800
     12 C21         -4.0610     4.0800     5.0370 c3         1 5XG      -0.149000
     13 C23         -5.8350     5.2100     6.1810 c3         1 5XG       0.094000
     14 O26         -4.5170     5.2010     2.9450 o          1 5XG      -0.627500
     15 C27         -2.5510     4.2170     4.8750 c3         1 5XG      -0.055900
     16 N1          -0.8170     0.0060    -1.1200 nv         1 5XG      -0.956600
     17 N3           1.3440     0.0000     0.0000 na         1 5XG       0.007800
     18 N4           1.8210     0.0000     1.3150 nc         1 5XG      -0.277400
     19 C9          -1.6800     0.0000     1.9630 ca         1 5XG      -0.053000
     20 C10         -0.4230    -0.0010     1.3260 ca         1 5XG      -0.195000
     21 C14         -0.9260    -0.0640     8.3130 ca         1 5XG       0.433200
     22 Cl1         -2.6790     1.9990     8.4740 cl         1 5XG      -0.100400
     23 N18         -2.2900     1.8620     5.4990 nh         1 5XG      -0.609000
     24 C20         -4.4980     2.6420     4.7800 c3         1 5XG      -0.055900
     25 C22         -4.4820     4.5140     6.4560 c3         1 5XG      -0.096400
     26 N24         -5.7690     5.6580     4.7840 ns         1 5XG      -0.591900
     27 C25         -4.7840     5.0300     4.1160 c          1 5XG       0.710500
     28 C28         -1.8500     3.2280     5.8110 c3         1 5XG       0.154800
     29 H1           1.5450    -0.0010     4.1850 ha         1 5XG       0.141000
     30 H2          -2.7240    -0.0010     3.7940 ha         1 5XG       0.135000
     31 H3           0.6310    -1.6320     5.8880 h4         1 5XG       0.039100
     32 H4          -4.0190     0.6800     5.5150 h1         1 5XG       0.049450
     33 H5          -3.9710     1.9530     6.7460 h1         1 5XG       0.049450
     34 H6          -6.6500     4.5070     6.3090 h1         1 5XG       0.044200
     35 H7          -5.9590     6.0600     6.8400 h1         1 5XG       0.044200
     36 H8          -2.2520     5.2270     5.1280 hc         1 5XG       0.063200
     37 H9          -2.2770     3.9990     3.8500 hc         1 5XG       0.063200
     38 H10         -1.2570    -0.8410    -1.4220 hn         1 5XG       0.440800
     39 H11         -0.9590     0.8540    -1.6310 hn         1 5XG       0.440800
     40 H12          1.9180     0.0000    -0.8200 hn         1 5XG       0.326700
     41 H13         -2.5880     0.0000     1.3720 ha         1 5XG       0.129000
     42 H14         -0.9920    -0.1030     9.3930 h4         1 5XG       0.034100
     43 H15         -5.5610     2.5490     4.9650 hc         1 5XG       0.063200
     44 H16         -4.2810     2.3770     3.7520 hc         1 5XG       0.063200
     45 H17         -4.6150     3.6530     7.0990 hc         1 5XG       0.062700
     46 H18         -3.7670     5.2130     6.8730 hc         1 5XG       0.062700
     47 H19         -6.3770     6.3440     4.3810 hn         1 5XG       0.337500
     48 H20         -2.1030     3.4620     6.8380 h1         1 5XG       0.049450
     49 H21         -0.7780     3.3010     5.6730 h1         1 5XG       0.049450
@<TRIPOS>BOND
     1    16     1 1
     2     1    17 1
     3     1    20 2
     4    17    18 1
     5    20    19 ar
     6    20     2 ar
     7    19     5 ar
     8    18     2 2
     9     2     3 ar
    10     5     4 ar
    11     3     4 ar
    12     4     6 1
    13     7     6 ar
    14     7     8 ar
    15     6    10 ar
    16     8    21 ar
    17    11    23 1
    18    11    24 1
    19    10    23 1
    20    10     9 ar
    21    23    28 1
    22    25    12 1
    23    25    13 1
    24    24    12 1
    25    21     9 ar
    26     9    22 1
    27    28    15 1
    28    12    15 1
    29    12    27 1
    30    13    26 1
    31    27    26 1
    32    27    14 2
    33     3    29 1
    34     5    30 1
    35     7    31 1
    36    11    32 1
    37    11    33 1
    38    13    34 1
    39    13    35 1
    40    15    36 1
    41    15    37 1
    42    16    38 1
    43    16    39 1
    44    17    40 1
    45    19    41 1
    46    21    42 1
    47    24    43 1
    48    24    44 1
    49    25    45 1
    50    25    46 1
    51    26    47 1
    52    28    48 1
    53    28    49 1
@<TRIPOS>SUBSTRUCTURE
     1 5XG         1 TEMP              0 ****  ****    0 ROOT
