@<TRIPOS>MOLECULE
molecule
   69    72     1     0     0
SMALL
bcc


@<TRIPOS>ATOM
      1 C1           0.0000     0.0000     0.0000 c3         1 5XH       0.150100
      2 C2           1.9950     0.0000     1.3720 c3         1 5XH       0.182000
      3 C3           1.6360     1.2980     2.0480 c2         1 5XH      -0.063200
      4 O1           2.4790     8.0560     6.4610 o          1 5XH      -0.516100
      5 C11          0.8290     6.1360     7.2520 cc         1 5XH       0.493400
      6 C12          2.5710     6.9840     5.8940 c          1 5XH       0.668700
      7 C13          3.5710     6.7990     4.8170 ca         1 5XH      -0.107600
      8 C14          3.6940     5.5750     4.1530 ca         1 5XH      -0.234300
      9 C15          4.6400     5.4470     3.1550 ca         1 5XH       0.424200
     10 C16          5.3330     7.6300     3.4240 ca         1 5XH       0.421600
     11 C17          6.2530     8.7470     3.0040 c3         1 5XH      -0.141400
     12 C18          4.4150     7.8460     4.4330 ca         1 5XH      -0.192300
     13 C19         -0.3480     7.0650     8.8350 ca         1 5XH       0.115400
     14 C20         -0.9370     7.8970     9.7900 ca         1 5XH      -0.076000
     15 C21         -1.9510     7.4160    10.5850 ca         1 5XH      -0.141000
     16 C22         -2.3940     6.1080    10.4460 ca         1 5XH      -0.120000
     17 C23         -1.8240     5.2730     9.5070 ca         1 5XH      -0.082300
     18 C24         -2.3110     3.8550     9.3640 c3         1 5XH      -0.049800
     19 C25         -0.7980     5.7420     8.7000 ca         1 5XH      -0.089200
     20 C26         -0.3730     3.8280     5.6730 c3         1 5XH       0.086000
     21 C27          1.9960    -1.1370    -0.7660 c3         1 5XH       0.150100
     22 C5           0.6290     2.5520     3.8640 c          1 5XH       0.666300
     23 C4           0.9800     1.2850     3.2040 ce         1 5XH      -0.274200
     24 N1           1.4690     0.0000     0.0000 n3         1 5XH      -0.725600
     25 N2          -0.0370     2.5400     5.0370 n          1 5XH      -0.484800
     26 C10         -0.1350     3.8020     7.1930 c3         1 5XH       0.028000
     27 C9           1.1420     3.0620     7.5060 c3         1 5XH      -0.098400
     28 C8           0.8260     1.5890     7.7510 c3         1 5XH      -0.077400
     29 C7           0.7580     0.7730     6.5300 c3         1 5XH      -0.107400
     30 C6          -0.3900     1.2650     5.6190 c3         1 5XH       0.099000
     31 N3          -0.0350     5.1760     7.6930 na         1 5XH      -0.176300
     32 N6           0.6450     7.2440     7.9250 nd         1 5XH      -0.584100
     33 N5           5.4190     6.4570     2.8280 nb         1 5XH      -0.681000
     34 H1          -0.3610    -0.7680     0.6730 h1         1 5XH       0.035033
     35 H2          -0.3610     0.9670     0.3280 h1         1 5XH       0.035033
     36 H3          -0.3610    -0.1990    -1.0020 h1         1 5XH       0.035033
     37 H4           3.0730    -0.1070     1.3450 h1         1 5XH       0.043700
     38 H5           1.5640    -0.8260     1.9240 h1         1 5XH       0.043700
     39 H6           1.9120     2.2410     1.5920 ha         1 5XH       0.165000
     40 H8           3.0560     4.7390     4.4170 ha         1 5XH       0.140000
     41 H9           4.7450     4.5020     2.6360 h4         1 5XH       0.026100
     42 H10          5.6720     9.5490     2.5670 hc         1 5XH       0.054700
     43 H11          6.7870     9.1200     3.8700 hc         1 5XH       0.054700
     44 H12          6.9630     8.3760     2.2750 hc         1 5XH       0.054700
     45 H13          4.2260     8.8520     4.7880 ha         1 5XH       0.165000
     46 H14         -0.5960     8.9190     9.9040 ha         1 5XH       0.146000
     47 H15         -2.4070     8.0620    11.3260 ha         1 5XH       0.133000
     48 H16         -3.1940     5.7400    11.0780 ha         1 5XH       0.131000
     49 H17         -3.1290     3.6820    10.0520 hc         1 5XH       0.040367
     50 H18         -1.5010     3.1710     9.5870 hc         1 5XH       0.040367
     51 H19         -2.6520     3.6910     8.3490 hc         1 5XH       0.040367
     52 H20         -1.4170     4.0500     5.4850 h1         1 5XH       0.073700
     53 H21          0.2410     4.6060     5.2360 h1         1 5XH       0.073700
     54 H22          1.6340    -1.0850    -1.7850 h1         1 5XH       0.035033
     55 H23          3.0790    -1.1010    -0.7660 h1         1 5XH       0.035033
     56 H24          1.6650    -2.0630    -0.3120 h1         1 5XH       0.035033
     57 H25          0.7040     0.3420     3.6600 ha         1 5XH       0.132000
     58 H28         -0.9660     3.3000     7.6750 h1         1 5XH       0.089700
     59 H29          1.5960     3.4850     8.3930 hc         1 5XH       0.059700
     60 H30          1.8230     3.1490     6.6680 hc         1 5XH       0.059700
     61 H31         -0.1290     1.5240     8.2590 hc         1 5XH       0.046200
     62 H32          1.5930     1.1780     8.3950 hc         1 5XH       0.046200
     63 H33          1.6970     0.8520     5.9950 hc         1 5XH       0.053200
     64 H34         -1.2930     1.3770     6.2080 h1         1 5XH       0.056200
     65 H35          1.8670     5.0700     5.8090 hn         1 5XH       0.340500
     66 H7           0.5800    -0.2610     6.8010 hc         1 5XH       0.053200
     67 H26         -0.5570     0.5430     4.8290 h1         1 5XH       0.056200
     68 N4           1.7620     5.9640     6.2460 ns         1 5XH      -0.469400
     69 O2           0.9390     3.6110     3.3530 o          1 5XH      -0.622100
@<TRIPOS>BOND
     1     1    24 1
     2    21    24 1
     3    24     2 1
     4    28    29 1
     5    28    27 1
     6    18    17 1
     7     2     3 1
     8    29    30 1
     9    23     3 2
    10    23    22 1
    11    27    26 1
    12    26    31 1
    13    26    20 1
    14    17    16 ar
    15    17    19 ar
    16    30    25 1
    17    22    25 1
    18    22    69 2
    19    25    20 1
    20    16    15 ar
    21    31    19 1
    22    31     5 1
    23    19    13 ar
    24    15    14 ar
    25     5    68 1
    26     5    32 2
    27    13    14 ar
    28    13    32 1
    29    11    10 1
    30    68     6 1
    31    12    10 ar
    32    12     7 ar
    33    10    33 ar
    34     6     7 1
    35     6     4 2
    36     7     8 ar
    37    33     9 ar
    38     8     9 ar
    39     1    34 1
    40     1    35 1
    41     1    36 1
    42     2    37 1
    43     2    38 1
    44     3    39 1
    45     8    40 1
    46     9    41 1
    47    11    42 1
    48    11    43 1
    49    11    44 1
    50    12    45 1
    51    14    46 1
    52    15    47 1
    53    16    48 1
    54    18    49 1
    55    18    50 1
    56    18    51 1
    57    20    52 1
    58    20    53 1
    59    21    54 1
    60    21    55 1
    61    21    56 1
    62    23    57 1
    63    26    58 1
    64    27    59 1
    65    27    60 1
    66    28    61 1
    67    28    62 1
    68    29    63 1
    69    30    64 1
    70    68    65 1
    71    29    66 1
    72    30    67 1
@<TRIPOS>SUBSTRUCTURE
     1 5XH         1 TEMP              0 ****  ****    0 ROOT
