@<TRIPOS>MOLECULE
5XH
   69    74     1     0     0
SMALL
bcc


@<TRIPOS>ATOM
      1 C1           0.0000     0.0000     0.0000 c3         1 5XH      -0.094000
      2 C2           1.9950     0.0000     1.3720 DU         1 5XH      -0.023000
      3 C3           1.6360     1.2980     2.0480 c2         1 5XH      -0.044000
      4 O1           2.4790     8.0560     6.4610 o          1 5XH      -0.319000
      5 C11          0.8290     6.1360     7.2520 c2         1 5XH      -0.172000
      6 C12          2.5710     6.9840     5.8940 c2         1 5XH       0.246000
      7 C13          3.5710     6.7990     4.8170 c2         1 5XH      -0.104000
      8 C14          3.6940     5.5750     4.1530 c2         1 5XH      -0.145000
      9 C15          4.6400     5.4470     3.1550 c2         1 5XH      -0.059000
     10 C16          5.3330     7.6300     3.4240 c2         1 5XH      -0.059000
     11 C17          6.2530     8.7470     3.0040 c3         1 5XH      -0.063000
     12 C18          4.4150     7.8460     4.4330 c2         1 5XH      -0.090000
     13 C19         -0.3480     7.0650     8.8350 ca         1 5XH      -0.054000
     14 C20         -0.9370     7.8970     9.7900 ca         1 5XH      -0.043000
     15 C21         -1.9510     7.4160    10.5850 ca         1 5XH      -0.115000
     16 C22         -2.3940     6.1080    10.4460 ca         1 5XH      -0.096000
     17 C23         -1.8240     5.2730     9.5070 ca         1 5XH      -0.074000
     18 C24         -2.3110     3.8550     9.3640 c3         1 5XH      -0.070000
     19 C25         -0.7980     5.7420     8.7000 ca         1 5XH      -0.206000
     20 C26         -0.3730     3.8280     5.6730 c3         1 5XH      -0.083000
     21 C27          1.9960    -1.1370    -0.7660 c3         1 5XH      -0.094000
     22 C5           0.6290     2.5520     3.8640 c3         1 5XH       0.359000
     23 C4           0.9800     1.2850     3.2040 c2         1 5XH      -0.178000
     24 N1           1.4690     0.0000     0.0000 n3         1 5XH      -0.093000
     25 N2          -0.0370     2.5400     5.0370 n3         1 5XH      -0.034000
     26 C10         -0.1350     3.8020     7.1930 c3         1 5XH      -0.123000
     27 C9           1.1420     3.0620     7.5060 c3         1 5XH      -0.132000
     28 C8           0.8260     1.5890     7.7510 c3         1 5XH      -0.105000
     29 C7           0.7580     0.7730     6.5300 c3         1 5XH      -0.129000
     30 C6          -0.3900     1.2650     5.6190 c3         1 5XH      -0.062000
     31 N3          -0.0350     5.1760     7.6930 na         1 5XH       0.256000
     32 N6           0.6450     7.2440     7.9250 n2         1 5XH      -0.069000
     33 N5           5.4190     6.4570     2.8280 n2         1 5XH      -0.039000
     34 H1          -0.3610     1.0130     0.1290 h1         1 5XH       0.046833
     35 H2          -0.3610    -0.6180     0.8130 h1         1 5XH       0.046833
     36 H3          -0.3610    -0.3950    -0.9420 h1         1 5XH       0.046833
     37 H4           3.0730    -0.1070     1.3450 ha         1 5XH       0.067500
     38 H5           1.5640    -0.8260     1.9240 ha         1 5XH       0.067500
     39 H6           0.9410     0.6920     1.4790 DU         1 5XH       0.076000
     40 H8           3.0560     4.7390     4.4170 ha         1 5XH       0.121000
     41 H9           4.7450     4.5020     2.6360 h4         1 5XH       0.121000
     42 H10          5.6710     9.5500     2.5670 hc         1 5XH       0.054000
     43 H11          6.9630     8.3760     2.2750 hc         1 5XH       0.054000
     44 H12          6.7880     9.1200     3.8700 hc         1 5XH       0.054000
     45 H13          4.2260     8.8520     4.7890 ha         1 5XH       0.138000
     46 H14         -0.5960     8.9190     9.9040 ha         1 5XH       0.114000
     47 H15         -2.4070     8.0620    11.3260 ha         1 5XH       0.104000
     48 H16         -3.1940     5.7400    11.0780 ha         1 5XH       0.105000
     49 H17         -1.4990     3.1710     9.5800 hc         1 5XH       0.047333
     50 H18         -2.6590     3.6930     8.3510 hc         1 5XH       0.047333
     51 H19         -3.1240     3.6800    10.0570 hc         1 5XH       0.047333
     52 H20          0.2410     4.6060     5.2360 h1         1 5XH       0.084500
     53 H21         -1.4170     4.0500     5.4850 h1         1 5XH       0.084500
     54 H22          1.6530    -1.0720    -1.7910 h1         1 5XH       0.046833
     55 H23          3.0790    -1.1150    -0.7460 h1         1 5XH       0.046833
     56 H24          1.6460    -2.0630    -0.3260 h1         1 5XH       0.046833
     57 H25          0.1530     1.9200     2.9100 DU         1 5XH       0.017000
     58 H28         -0.9660     3.3000     7.6750 h1         1 5XH       0.120000
     59 H29          1.5960     3.4850     8.3930 hc         1 5XH       0.075500
     60 H30          1.8230     3.1490     6.6680 hc         1 5XH       0.075500
     61 H31          1.5930     1.1780     8.3950 hc         1 5XH       0.059500
     62 H32         -0.1290     1.5240     8.2590 hc         1 5XH       0.059500
     63 H33          1.6970     0.8520     5.9950 hc         1 5XH       0.070000
     64 H34         -0.5570     0.5430     4.8290 h1         1 5XH       0.067500
     65 H35          1.8690     5.0690     5.8100 hn         1 5XH       0.104000
     66 H7           0.5800    -0.2610     6.8010 hc         1 5XH       0.070000
     67 H26         -1.2930     1.3770     6.2080 h1         1 5XH       0.067500
     68 N4           1.7620     5.9640     6.2460 ns         1 5XH       0.117000
     69 O2           0.9390     3.6110     3.3530 o          1 5XH      -0.455000
@<TRIPOS>BOND
     1     1    24 1   
     2     1    34 1   
     3     1    35 1   
     4     1    36 1   
     5     2     3 1   
     6     2    24 1   
     7     2    37 1   
     8     2    38 1   
     9     2    39 1   
    10     3    23 1   
    11     3    39 1   
    12     4     6 1   
    13     5    31 1   
    14     5    32 1   
    15     5    68 1   
    16     6     7 1   
    17     6    68 1   
    18     7     8 1   
    19     7    12 1   
    20     8     9 1   
    21     8    40 1   
    22     9    33 1   
    23     9    41 1   
    24    10    11 1   
    25    10    12 1   
    26    10    33 1   
    27    11    42 1   
    28    11    43 1   
    29    11    44 1   
    30    12    45 1   
    31    13    14 1   
    32    13    19 1   
    33    13    32 1   
    34    14    15 1   
    35    14    46 1   
    36    15    16 1   
    37    15    47 1   
    38    16    17 1   
    39    16    48 1   
    40    17    18 1   
    41    17    19 1   
    42    18    49 1   
    43    18    50 1   
    44    18    51 1   
    45    19    31 1   
    46    20    25 1   
    47    20    26 1   
    48    20    52 1   
    49    20    53 1   
    50    21    24 1   
    51    21    54 1   
    52    21    55 1   
    53    21    56 1   
    54    22    23 1   
    55    22    25 1   
    56    22    57 1   
    57    22    69 1   
    58    23    57 1   
    59    25    30 1   
    60    26    27 1   
    61    26    31 1   
    62    26    58 1   
    63    27    28 1   
    64    27    59 1   
    65    27    60 1   
    66    28    29 1   
    67    28    61 1   
    68    28    62 1   
    69    29    30 1   
    70    29    63 1   
    71    29    66 1   
    72    30    64 1   
    73    30    67 1   
    74    65    68 1   
@<TRIPOS>SUBSTRUCTURE
     1 5XH         1 TEMP              0 ****  ****    0 ROOT
