@<TRIPOS>MOLECULE
molecule
   47    50     1     0     0
SMALL
bcc


@<TRIPOS>ATOM
      1 C28          0.0000     0.0000     0.0000 c3         1 5XJ       0.225100
      2 N26          1.4650     0.0000     0.0000 n3         1 5XJ      -0.827500
      3 C29          2.1970     0.0000     1.2690 c3         1 5XJ       0.225100
      4 S24          2.2930    -0.0010    -1.4340 s6         1 5XJ       1.550800
      5 O25          3.5760    -0.5450    -1.1560 o          1 5XJ      -0.642800
      6 O27          1.4120    -0.5450    -2.4060 o          1 5XJ      -0.642800
      7 N7           2.5380     1.5810    -1.8590 nu         1 5XJ      -0.771500
      8 C3           3.2690     2.4270    -1.0160 ca         1 5XJ       0.106600
      9 C2           2.9110     3.7630    -0.8910 ca         1 5XJ       0.141900
     10 F31          1.8570     4.2480    -1.5830 f          1 5XJ      -0.121900
     11 C4           4.3500     1.9290    -0.2990 ca         1 5XJ      -0.146000
     12 C5           5.0720     2.7620     0.5340 ca         1 5XJ      -0.151000
     13 C6           4.7220     4.0960     0.6570 ca         1 5XJ       0.127900
     14 F30          5.4310     4.9070     1.4720 f          1 5XJ      -0.124900
     15 C1           3.6380     4.5990    -0.0540 ca         1 5XJ       0.092600
     16 N8           3.2810     5.9470     0.0740 nu         1 5XJ      -0.761300
     17 C9           2.0120     6.2890     0.5150 ca         1 5XJ       0.740200
     18 N14          1.1050     5.3440     0.7090 nb         1 5XJ      -0.750000
     19 C13         -0.1110     5.6260     1.1320 ca         1 5XJ       0.485200
     20 C12         -0.4950     6.9280     1.3940 ca         1 5XJ      -0.315300
     21 C11          0.4150     7.9560     1.2080 ca         1 5XJ      -0.046000
     22 C10          1.6970     7.6350     0.7590 cp         1 5XJ      -0.342800
     23 C15          2.7090     8.6950     0.5500 cp         1 5XJ       0.546800
     24 N16          3.9680     8.5270     0.9570 nb         1 5XJ      -0.745000
     25 C17          4.8740     9.4670     0.7740 ca         1 5XJ       0.676900
     26 N18          4.5990    10.6120     0.1870 nb         1 5XJ      -0.691000
     27 C19          3.3660    10.8720    -0.2530 ca         1 5XJ       0.619300
     28 C20          2.3690     9.8940    -0.0830 ca         1 5XJ      -0.348800
     29 N23          1.2200    10.4210    -0.6290 na         1 5XJ      -0.249300
     30 C22          1.5300    11.6500    -1.1030 cc         1 5XJ       0.459700
     31 N21          2.7860    11.9160    -0.8740 nd         1 5XJ      -0.669700
     32 H1          -0.3610    -0.9560    -0.3600 h1         1 5XJ       0.045533
     33 H2          -0.3610     0.7900    -0.6480 h1         1 5XJ       0.045533
     34 H3          -0.3610     0.1660     1.0080 h1         1 5XJ       0.045533
     35 H4           2.2140     1.0040     1.6770 h1         1 5XJ       0.045533
     36 H5           3.2120    -0.3380     1.1000 h1         1 5XJ       0.045533
     37 H6           1.7060    -0.6660     1.9690 h1         1 5XJ       0.045533
     38 H7           2.1910     1.9240    -2.7330 hn         1 5XJ       0.469800
     39 H8           4.6270     0.8860    -0.3930 ha         1 5XJ       0.196000
     40 H9           5.9140     2.3710     1.0920 ha         1 5XJ       0.158000
     41 H10          3.9400     6.6630    -0.1590 hn         1 5XJ       0.484800
     42 H11         -0.8230     4.8220     1.2770 h4         1 5XJ       0.025100
     43 H12         -1.4980     7.1430     1.7410 ha         1 5XJ       0.142000
     44 H13          0.1380     8.9840     1.4070 ha         1 5XJ       0.136000
     45 H14          5.8850     9.2890     1.1190 h5         1 5XJ       0.069100
     46 H15          0.3250     9.9750    -0.6750 hn         1 5XJ       0.311700
     47 H16          0.8350    12.3170    -1.6000 h5         1 5XJ       0.083800
@<TRIPOS>BOND
     1     6     4 2
     2     4     7 1
     3     4     5 2
     4     4     2 1
     5     7     8 1
     6     3     2 1
     7    10     9 1
     8     2     1 1
     9    19    20 ar
    10    19    18 ar
    11     8     9 ar
    12     8    11 ar
    13    20    21 ar
    14     9    15 ar
    15    18    17 ar
    16    21    22 ar
    17    17    22 ar
    18    17    16 1
    19    11    12 ar
    20    15    16 1
    21    15    13 ar
    22    22    23 1
    23    29    28 1
    24    29    30 1
    25    23    28 ar
    26    23    24 ar
    27    12    13 ar
    28    28    27 ar
    29    13    14 1
    30    30    31 2
    31    24    25 ar
    32    27    31 1
    33    27    26 ar
    34    25    26 ar
    35     1    32 1
    36     1    33 1
    37     1    34 1
    38     3    35 1
    39     3    36 1
    40     3    37 1
    41     7    38 1
    42    11    39 1
    43    12    40 1
    44    16    41 1
    45    19    42 1
    46    20    43 1
    47    21    44 1
    48    25    45 1
    49    29    46 1
    50    30    47 1
@<TRIPOS>SUBSTRUCTURE
     1 5XJ         1 TEMP              0 ****  ****    0 ROOT
