@<TRIPOS>MOLECULE
molecule
   40    42     1     0     0
SMALL
bcc


@<TRIPOS>ATOM
      1 C4           0.0000     0.0000     0.0000 c3         1 5XK      -0.093100
      2 C14          4.3040     5.2600     2.5060 ca         1 5XK      -0.178600
      3 C5           3.5630     0.1430     1.4450 c3         1 5XK       0.001900
      4 C6           3.9420     1.4900     0.8880 cc         1 5XK      -0.186300
      5 C11          5.0730     7.2560     0.7480 ca         1 5XK      -0.067000
      6 C7           4.2900     1.7710    -0.4460 cd         1 5XK      -0.154000
      7 C8           4.5580     3.0890    -0.5300 cc         1 5XK      -0.161300
      8 C9           4.5430     4.9560     1.1570 ca         1 5XK       0.064800
      9 C10          4.9270     5.9620     0.2850 ca         1 5XK      -0.170000
     10 C12          4.8480     7.5570     2.0800 ca         1 5XK      -0.157000
     11 C13          4.4590     6.5690     2.9640 ca         1 5XK       0.107400
     12 N1           3.7670     2.9280     2.9260 ns         1 5XK      -0.436100
     13 C3           1.5300     0.0000     0.0000 c3         1 5XK      -0.082400
     14 Cl           4.1780     6.9500     4.6340 cl         1 5XK      -0.047400
     15 C15          3.8980     4.1750     3.4180 c          1 5XK       0.712100
     16 O            3.6830     4.4030     4.5940 o          1 5XK      -0.610500
     17 C16          4.0110     2.6570     1.5830 cd         1 5XK       0.037300
     18 N            4.3900     3.6440     0.7140 na         1 5XK       0.016800
     19 C2           2.0400     0.0000     1.4420 c3         1 5XK      -0.068700
     20 C1           1.6490    -1.3140     2.1220 c3         1 5XK      -0.082400
     21 C            2.0360    -1.2580     3.6010 c3         1 5XK      -0.093100
     22 H1          -0.3610     0.4760    -0.9040 hc         1 5XK       0.032533
     23 H2          -0.3610    -1.0210     0.0400 hc         1 5XK       0.032533
     24 H3          -0.3610     0.5450     0.8640 hc         1 5XK       0.032533
     25 H4           4.0000    -0.6370     0.8320 hc         1 5XK       0.047200
     26 H5           3.9330     0.0540     2.4590 hc         1 5XK       0.047200
     27 H6           5.3770     8.0390     0.0650 ha         1 5XK       0.144000
     28 H7           4.4340     1.0410    -1.2340 ha         1 5XK       0.159000
     29 H8           4.8570     3.6190    -1.4250 h4         1 5XK       0.173000
     30 H9           5.1050     5.7360    -0.7590 ha         1 5XK       0.146000
     31 H10          4.9660     8.5750     2.4300 ha         1 5XK       0.152000
     32 H11          3.4930     2.1830     3.5360 hn         1 5XK       0.354500
     33 H12          1.8910    -0.8840    -0.5110 hc         1 5XK       0.044700
     34 H13          1.8910     0.8850    -0.5110 hc         1 5XK       0.044700
     35 H14          1.5990     0.8300     1.9810 hc         1 5XK       0.051700
     36 H15          0.5800    -1.4630     2.0340 hc         1 5XK       0.044700
     37 H16          2.1690    -2.1360     1.6440 hc         1 5XK       0.044700
     38 H17          1.8460    -0.2640     3.9870 hc         1 5XK       0.032533
     39 H18          1.4470    -1.9790     4.1560 hc         1 5XK       0.032533
     40 H19          3.0880    -1.4930     3.7090 hc         1 5XK       0.032533
@<TRIPOS>BOND
     1    10     5 ar
     2    10    11 ar
     3     5     9 ar
     4    14    11 1
     5    11     2 ar
     6     9     8 ar
     7     2     8 ar
     8     2    15 1
     9     8    18 1
    10    16    15 2
    11    15    12 1
    12    18     7 1
    13    18    17 1
    14    12    17 1
    15     7     6 2
    16    17     4 2
    17     6     4 1
    18     4     3 1
    19    21    20 1
    20     3    19 1
    21    20    19 1
    22    19    13 1
    23    13     1 1
    24     1    22 1
    25     1    23 1
    26     1    24 1
    27     3    25 1
    28     3    26 1
    29     5    27 1
    30     6    28 1
    31     7    29 1
    32     9    30 1
    33    10    31 1
    34    12    32 1
    35    13    33 1
    36    13    34 1
    37    19    35 1
    38    20    36 1
    39    20    37 1
    40    21    38 1
    41    21    39 1
    42    21    40 1
@<TRIPOS>SUBSTRUCTURE
     1 5XK         1 TEMP              0 ****  ****    0 ROOT
