@<TRIPOS>MOLECULE
5XK
   40    42     1     0     0
SMALL
bcc


@<TRIPOS>ATOM
      1 C4           0.0000     0.0000     0.0000 c3         1 5XK       0.000900
      2 C14          4.3040     5.2600     2.5060 ca         1 5XK      -0.170600
      3 C5           3.5630     0.1430     1.4450 c3         1 5XK       0.067900
      4 C6           3.9420     1.4900     0.8880 cc         1 5XK      -0.184300
      5 C11          5.0730     7.2560     0.7480 ca         1 5XK      -0.039000
      6 C7           4.2900     1.7710    -0.4460 cc         1 5XK      -0.117000
      7 C8           4.5580     3.0890    -0.5300 cd         1 5XK      -0.341300
      8 C9           4.5430     4.9560     1.1570 ca         1 5XK      -0.129200
      9 C10          4.9270     5.9620     0.2850 ca         1 5XK      -0.136000
     10 C12          4.8480     7.5570     2.0800 ca         1 5XK      -0.128000
     11 C13          4.4590     6.5690     2.9640 ca         1 5XK       0.031400
     12 N1           3.7670     2.9280     2.9260 ns         1 5XK       0.043900
     13 C3           1.5300     0.0000     0.0000 c3         1 5XK      -0.035900
     14 Cl           4.1780     6.9500     4.6340 cl         1 5XK       0.052600
     15 C15          3.8980     4.1750     3.4180 c          1 5XK       0.609100
     16 O            3.6830     4.4030     4.5940 o          1 5XK      -0.669500
     17 C16          4.0110     2.6570     1.5830 cd         1 5XK      -0.310700
     18 N            4.3900     3.6440     0.7140 na         1 5XK       0.566800
     19 C2           2.0400     0.0000     1.4420 c3         1 5XK      -0.051700
     20 C1           1.6490    -1.3140     2.1220 c3         1 5XK      -0.035900
     21 C            2.0360    -1.2580     3.6010 c3         1 5XK       0.000900
     22 H1          -0.3610     0.4760    -0.9040 hc         1 5XK       0.001700
     23 H2          -0.3610    -1.0210     0.0400 hc         1 5XK       0.001700
     24 H3          -0.3610     0.5450     0.8640 hc         1 5XK       0.001700
     25 H4           4.0000    -0.6370     0.8320 hc         1 5XK       0.019200
     26 H5           3.9330     0.0540     2.4590 hc         1 5XK       0.019200
     27 H6           5.3770     8.0390     0.0650 ha         1 5XK       0.108000
     28 H7           4.4340     1.0410    -1.2340 ha         1 5XK       0.131000
     29 H8           4.8570     3.6190    -1.4250 h4         1 5XK       0.152000
     30 H9           5.1050     5.7360    -0.7590 ha         1 5XK       0.120000
     31 H10          4.9660     8.5750     2.4300 ha         1 5XK       0.121000
     32 H11          3.4930     2.1830     3.5360 hn         1 5XK       0.185500
     33 H12          1.8910    -0.8840    -0.5110 hc         1 5XK       0.019950
     34 H13          1.8910     0.8850    -0.5110 hc         1 5XK       0.019950
     35 H14          1.5990     0.8300     1.9810 hc         1 5XK       0.030700
     36 H15          0.5800    -1.4630     2.0340 hc         1 5XK       0.019950
     37 H16          2.1690    -2.1360     1.6440 hc         1 5XK       0.019950
     38 H17          1.8460    -0.2640     3.9870 hc         1 5XK       0.001700
     39 H18          1.4470    -1.9790     4.1560 hc         1 5XK       0.001700
     40 H19          3.0880    -1.4930     3.7090 hc         1 5XK       0.001700
@<TRIPOS>BOND
     1     1    13 1   
     2     1    22 1   
     3     1    23 1   
     4     1    24 1   
     5     2     8 ar  
     6     2    11 ar  
     7     2    15 1   
     8     3     4 1   
     9     3    19 1   
    10     3    25 1   
    11     3    26 1   
    12     4     6 1   
    13     4    17 2   
    14     5     9 ar  
    15     5    10 ar  
    16     5    27 1   
    17     6     7 2   
    18     6    28 1   
    19     7    18 1   
    20     7    29 1   
    21     8     9 ar  
    22     8    18 1   
    23     9    30 1   
    24    10    11 ar  
    25    10    31 1   
    26    11    14 1   
    27    12    15 1   
    28    12    17 1   
    29    12    32 1   
    30    13    19 1   
    31    13    33 1   
    32    13    34 1   
    33    15    16 2   
    34    17    18 1   
    35    19    20 1   
    36    19    35 1   
    37    20    21 1   
    38    20    36 1   
    39    20    37 1   
    40    21    38 1   
    41    21    39 1   
    42    21    40 1   
@<TRIPOS>SUBSTRUCTURE
     1 5XK         1 TEMP              0 ****  ****    0 ROOT
