@<TRIPOS>MOLECULE
5XL
   33    35     1     0     0
SMALL
bcc


@<TRIPOS>ATOM
      1 C4           0.0000     0.0000     0.0000 cc         1 5XL      -0.099000
      2 C5           1.3470     0.0000     0.0000 cd         1 5XL      -0.344300
      3 C6           3.0670     0.0000     1.8370 ca         1 5XL      -0.128200
      4 C11          3.2340    -0.0010     3.2300 ca         1 5XL      -0.172600
      5 C7           4.1810     0.0010     1.0120 ca         1 5XL      -0.136000
      6 C8           5.4470     0.0010     1.5660 ca         1 5XL      -0.039000
      7 C9           5.6160     0.0010     2.9410 ca         1 5XL      -0.128000
      8 C10          4.5170     0.0000     3.7790 ca         1 5XL       0.031400
      9 C12          2.0370    -0.0000     4.0900 c          1 5XL       0.613100
     10 C13          0.6870    -0.0000     2.1250 cd         1 5XL      -0.303700
     11 N1           1.7800     0.0000     1.3010 na         1 5XL       0.567800
     12 N2           0.8200    -0.0000     3.5090 ns         1 5XL       0.019900
     13 C3          -0.4250    -0.0000     1.3420 cc         1 5XL      -0.188300
     14 Cl           4.7310     0.0010     5.5000 cl         1 5XL       0.051600
     15 O            2.1450    -0.0010     5.3020 o          1 5XL      -0.668500
     16 C2          -1.8530     0.0050     1.8240 c3         1 5XL       0.254100
     17 N           -2.2350     1.3710     2.2090 n3         1 5XL      -0.540600
     18 C1          -3.6800     1.4640     2.4580 c3         1 5XL       0.175100
     19 C           -1.4700     1.8200     3.3800 c3         1 5XL       0.175100
     20 H1          -0.6370    -0.1070    -0.8700 ha         1 5XL       0.130000
     21 H2           1.9810     0.0000    -0.8790 h4         1 5XL       0.152000
     22 H3           4.0590     0.0000    -0.0640 ha         1 5XL       0.121000
     23 H4           6.3160     0.0010     0.9190 ha         1 5XL       0.108000
     24 H5           6.6140     0.0010     3.3620 ha         1 5XL       0.121000
     25 H6           0.0000    -0.0070     4.0830 hn         1 5XL       0.196500
     26 H7          -2.5040    -0.3410     1.0300 h1         1 5XL       0.008200
     27 H8          -1.9480    -0.6510     2.6800 h1         1 5XL       0.008200
     28 H10         -4.2200     1.1140     1.5870 h1         1 5XL       0.002533
     29 H11         -3.9390     0.8510     3.3130 h1         1 5XL       0.002533
     30 H12         -3.9460     2.4950     2.6590 h1         1 5XL       0.002533
     31 H13         -1.9330     2.7070     3.7950 h1         1 5XL       0.002533
     32 H14         -1.4590     1.0350     4.1270 h1         1 5XL       0.002533
     33 H15         -0.4540     2.0490     3.0820 h1         1 5XL       0.002533
@<TRIPOS>BOND
     1     1     2 2   
     2     1    13 1   
     3     1    20 1   
     4     2    11 1   
     5     2    21 1   
     6     3     4 ar  
     7     3     5 ar  
     8     3    11 1   
     9     4     8 ar  
    10     4     9 1   
    11     5     6 ar  
    12     5    22 1   
    13     6     7 ar  
    14     6    23 1   
    15     7     8 ar  
    16     7    24 1   
    17     8    14 1   
    18     9    12 1   
    19     9    15 2   
    20    10    11 1   
    21    10    12 1   
    22    10    13 2   
    23    12    25 1   
    24    13    16 1   
    25    16    17 1   
    26    16    26 1   
    27    16    27 1   
    28    17    18 1   
    29    17    19 1   
    30    18    28 1   
    31    18    29 1   
    32    18    30 1   
    33    19    31 1   
    34    19    32 1   
    35    19    33 1   
@<TRIPOS>SUBSTRUCTURE
     1 5XL         1 TEMP              0 ****  ****    0 ROOT
