@<TRIPOS>MOLECULE
molecule
   33    35     1     0     0
SMALL
bcc


@<TRIPOS>ATOM
      1 C4           0.0000     0.0000     0.0000 cc         1 5XL      -0.138000
      2 C5           1.3470     0.0000     0.0000 cd         1 5XL      -0.163300
      3 C6           3.0670     0.0000     1.8370 ca         1 5XL       0.064800
      4 C11          3.2340    -0.0010     3.2300 ca         1 5XL      -0.179600
      5 C7           4.1810     0.0010     1.0120 ca         1 5XL      -0.169000
      6 C8           5.4470     0.0010     1.5660 ca         1 5XL      -0.067000
      7 C9           5.6160     0.0010     2.9410 ca         1 5XL      -0.157000
      8 C10          4.5170     0.0000     3.7790 ca         1 5XL       0.106400
      9 C12          2.0370    -0.0000     4.0900 c          1 5XL       0.712100
     10 C13          0.6870    -0.0000     2.1250 cd         1 5XL       0.039300
     11 N1           1.7800     0.0000     1.3010 na         1 5XL       0.017800
     12 N2           0.8200    -0.0000     3.5090 ns         1 5XL      -0.443100
     13 C3          -0.4250    -0.0000     1.3420 cc         1 5XL      -0.184300
     14 Cl           4.7310     0.0010     5.5000 cl         1 5XL      -0.047400
     15 O            2.1450    -0.0010     5.3020 o          1 5XL      -0.609500
     16 C2          -1.8530     0.0050     1.8240 c3         1 5XL       0.243100
     17 N           -2.2350     1.3710     2.2090 n3         1 5XL      -0.725600
     18 C1          -3.6800     1.4640     2.4580 c3         1 5XL       0.148600
     19 C           -1.4700     1.8200     3.3800 c3         1 5XL       0.148600
     20 H1          -0.6370    -0.1070    -0.8700 ha         1 5XL       0.160000
     21 H2           1.9810     0.0000    -0.8790 h4         1 5XL       0.173000
     22 H3           4.0590     0.0000    -0.0640 ha         1 5XL       0.147000
     23 H4           6.3160     0.0010     0.9190 ha         1 5XL       0.144000
     24 H5           6.6140     0.0010     3.3620 ha         1 5XL       0.153000
     25 H6           0.0000    -0.0070     4.0830 hn         1 5XL       0.357500
     26 H7          -2.5040    -0.3410     1.0300 h1         1 5XL       0.037700
     27 H8          -1.9480    -0.6510     2.6800 h1         1 5XL       0.037700
     28 H10         -4.2200     1.1140     1.5870 h1         1 5XL       0.032700
     29 H11         -3.9390     0.8510     3.3130 h1         1 5XL       0.032700
     30 H12         -3.9460     2.4950     2.6590 h1         1 5XL       0.032700
     31 H13         -1.9330     2.7070     3.7950 h1         1 5XL       0.032700
     32 H14         -1.4590     1.0350     4.1270 h1         1 5XL       0.032700
     33 H15         -0.4540     2.0490     3.0820 h1         1 5XL       0.032700
@<TRIPOS>BOND
     1     6     7 ar  
     2     6     5 ar  
     3     7     8 ar  
     4     5     3 ar  
     5     8    14 1   
     6     8     4 ar  
     7     3     4 ar  
     8     3    11 1   
     9     4     9 1   
    10     2    11 1   
    11     2     1 2   
    12    11    10 1   
    13     9    15 2   
    14     9    12 1   
    15     1    13 1   
    16    10    12 1   
    17    10    13 2   
    18    13    16 1   
    19    16    17 1   
    20    18    17 1   
    21    17    19 1   
    22     1    20 1   
    23     2    21 1   
    24     5    22 1   
    25     6    23 1   
    26     7    24 1   
    27    12    25 1   
    28    16    26 1   
    29    16    27 1   
    30    18    28 1   
    31    18    29 1   
    32    18    30 1   
    33    19    31 1   
    34    19    32 1   
    35    19    33 1   
@<TRIPOS>SUBSTRUCTURE
     1 5XL         1 TEMP              0 ****  ****    0 ROOT
