@<TRIPOS>MOLECULE
5XM
   42    45     1     0     0
SMALL
bcc


@<TRIPOS>ATOM
      1 CAQ          0.0000     0.0000     0.0000 c3         1 5XM       0.154800
      2 CAR          1.5300     0.0000     0.0000 c3         1 5XM      -0.025400
      3 CAS          2.0360     0.0000     1.4450 c3         1 5XM      -0.025400
      4 CAT          1.4720     1.2220     2.1750 c3         1 5XM      -0.025400
      5 CAU         -0.0570     1.1870     2.1120 c3         1 5XM       0.154800
      6 NAP         -0.4910     1.1890     0.7090 n3         1 5XM      -0.505600
      7 CAO         -1.9530     1.2950     0.6100 c3         1 5XM       0.167800
      8 CAN         -2.3340     1.7880    -0.7870 c3         1 5XM      -0.092000
      9 CAM         -3.8680     1.8980    -0.9200 c3         1 5XM      -0.033400
     10 CAL         -4.0130     3.1430    -1.8190 c3         1 5XM       0.148800
     11 NAG         -2.8000     3.9460    -1.5820 na         1 5XM      -0.205000
     12 CAH         -1.8340     3.2070    -1.0050 cc         1 5XM       0.492200
     13 NAI         -0.6550     3.7010    -0.7010 nd         1 5XM      -0.598100
     14 CAJ         -0.3210     4.9790    -0.9380 c          1 5XM       0.729100
     15 OAK          0.7830     5.4040    -0.6460 o          1 5XM      -0.584100
     16 CAE         -1.3320     5.8510    -1.5620 ca         1 5XM      -0.223600
     17 CAD         -2.5790     5.2840    -1.8730 ca         1 5XM       0.035600
     18 CAC         -3.5620     6.0690    -2.4620 ca         1 5XM      -0.167000
     19 CAB         -3.3020     7.3950    -2.7360 ca         1 5XM      -0.042000
     20 CAA         -2.0690     7.9540    -2.4300 ca         1 5XM      -0.146000
     21 CAF         -1.0820     7.1910    -1.8440 ca         1 5XM       0.004000
     22 H1          -0.3600    -0.8910     0.5000 h1         1 5XM       0.003200
     23 H2          -0.3590     0.0170    -1.0220 h1         1 5XM       0.003200
     24 H3           1.8900     0.8860    -0.5080 hc         1 5XM       0.024200
     25 H4           1.8900    -0.8860    -0.5080 hc         1 5XM       0.024200
     26 H5           1.7050    -0.9030     1.9440 hc         1 5XM       0.010200
     27 H6           3.1180     0.0460     1.4480 hc         1 5XM       0.010200
     28 H7           1.8320     2.1250     1.6980 hc         1 5XM       0.024200
     29 H8           1.7900     1.2020     3.2110 hc         1 5XM       0.024200
     30 H9          -0.4580     2.0590     2.6140 h1         1 5XM       0.003200
     31 H10         -0.4170     0.2880     2.5990 h1         1 5XM       0.003200
     32 H12         -2.3980     0.3220     0.7840 h1         1 5XM       0.011200
     33 H13         -2.3150     1.9950     1.3530 h1         1 5XM       0.011200
     34 H14         -1.9370     1.1290    -1.5490 hc         1 5XM       0.057700
     35 H15         -4.2770     1.0210    -1.4060 hc         1 5XM       0.034200
     36 H16         -4.3280     2.0650     0.0470 hc         1 5XM       0.034200
     37 H17         -4.0670     2.8470    -2.8600 h1         1 5XM       0.028700
     38 H18         -4.8940     3.7060    -1.5370 h1         1 5XM       0.028700
     39 H19         -4.5270     5.6410    -2.7040 ha         1 5XM       0.111000
     40 H20         -4.0680     8.0070    -3.1960 ha         1 5XM       0.101000
     41 H21         -1.8810     8.9980    -2.6520 ha         1 5XM       0.109000
     42 H22         -0.1210     7.6300    -1.6060 ha         1 5XM       0.127000
@<TRIPOS>BOND
     1     1     2 1   
     2     1     6 1   
     3     1    22 1   
     4     1    23 1   
     5     2     3 1   
     6     2    24 1   
     7     2    25 1   
     8     3     4 1   
     9     3    26 1   
    10     3    27 1   
    11     4     5 1   
    12     4    28 1   
    13     4    29 1   
    14     5     6 1   
    15     5    30 1   
    16     5    31 1   
    17     6     7 1   
    18     7     8 1   
    19     7    32 1   
    20     7    33 1   
    21     8     9 1   
    22     8    12 1   
    23     8    34 1   
    24     9    10 1   
    25     9    35 1   
    26     9    36 1   
    27    10    11 1   
    28    10    37 1   
    29    10    38 1   
    30    11    12 1   
    31    11    17 1   
    32    12    13 2   
    33    13    14 1   
    34    14    15 2   
    35    14    16 1   
    36    16    17 ar  
    37    16    21 ar  
    38    17    18 ar  
    39    18    19 ar  
    40    18    39 1   
    41    19    20 ar  
    42    19    40 1   
    43    20    21 ar  
    44    20    41 1   
    45    21    42 1   
@<TRIPOS>SUBSTRUCTURE
     1 5XM         1 TEMP              0 ****  ****    0 ROOT
