@<TRIPOS>MOLECULE
molecule
   42    45     1     0     0
SMALL
bcc


@<TRIPOS>ATOM
      1 CAQ          0.0000     0.0000     0.0000 c3         1 5XM       0.168300
      2 CAR          1.5300     0.0000     0.0000 c3         1 5XM      -0.076900
      3 CAS          2.0360     0.0000     1.4450 c3         1 5XM      -0.081400
      4 CAT          1.4720     1.2220     2.1750 c3         1 5XM      -0.076900
      5 CAU         -0.0570     1.1870     2.1120 c3         1 5XM       0.168300
      6 NAP         -0.4910     1.1890     0.7090 n3         1 5XM      -0.700600
      7 CAO         -1.9530     1.2950     0.6100 c3         1 5XM       0.178800
      8 CAN         -2.3340     1.7880    -0.7870 c3         1 5XM      -0.107000
      9 CAM         -3.8680     1.8980    -0.9200 c3         1 5XM      -0.100400
     10 CAL         -4.0130     3.1430    -1.8190 c3         1 5XM       0.213800
     11 NAG         -2.8000     3.9460    -1.5820 na         1 5XM      -0.633000
     12 CAH         -1.8340     3.2070    -1.0050 cc         1 5XM       0.693200
     13 NAI         -0.6550     3.7010    -0.7010 nd         1 5XM      -0.693100
     14 CAJ         -0.3210     4.9790    -0.9380 c          1 5XM       0.727100
     15 OAK          0.7830     5.4040    -0.6460 o          1 5XM      -0.548100
     16 CAE         -1.3320     5.8510    -1.5620 ca         1 5XM      -0.223600
     17 CAD         -2.5790     5.2840    -1.8730 ca         1 5XM       0.182600
     18 CAC         -3.5620     6.0690    -2.4620 ca         1 5XM      -0.187000
     19 CAB         -3.3020     7.3950    -2.7360 ca         1 5XM      -0.076000
     20 CAA         -2.0690     7.9540    -2.4300 ca         1 5XM      -0.171000
     21 CAF         -1.0820     7.1910    -1.8440 ca         1 5XM      -0.036000
     22 H1          -0.3600    -0.8910     0.5000 h1         1 5XM       0.026950
     23 H2          -0.3590     0.0170    -1.0220 h1         1 5XM       0.026950
     24 H3           1.8900     0.8860    -0.5080 hc         1 5XM       0.053700
     25 H4           1.8900    -0.8860    -0.5080 hc         1 5XM       0.053700
     26 H5           1.7050    -0.9030     1.9440 hc         1 5XM       0.037700
     27 H6           3.1180     0.0460     1.4480 hc         1 5XM       0.037700
     28 H7           1.8320     2.1250     1.6980 hc         1 5XM       0.053700
     29 H8           1.7900     1.2020     3.2110 hc         1 5XM       0.053700
     30 H9          -0.4580     2.0590     2.6140 h1         1 5XM       0.026950
     31 H10         -0.4170     0.2880     2.5990 h1         1 5XM       0.026950
     32 H12         -2.3980     0.3220     0.7840 h1         1 5XM       0.038200
     33 H13         -2.3150     1.9950     1.3530 h1         1 5XM       0.038200
     34 H14         -1.9370     1.1290    -1.5490 hc         1 5XM       0.089700
     35 H15         -4.2770     1.0210    -1.4060 hc         1 5XM       0.067200
     36 H16         -4.3280     2.0650     0.0470 hc         1 5XM       0.067200
     37 H17         -4.0670     2.8470    -2.8600 h1         1 5XM       0.060200
     38 H18         -4.8940     3.7060    -1.5370 h1         1 5XM       0.060200
     39 H19         -4.5270     5.6410    -2.7040 ha         1 5XM       0.132000
     40 H20         -4.0680     8.0070    -3.1960 ha         1 5XM       0.132000
     41 H21         -1.8810     8.9980    -2.6520 ha         1 5XM       0.136000
     42 H22         -0.1210     7.6300    -1.6060 ha         1 5XM       0.160000
@<TRIPOS>BOND
     1     3     4 1   
     2     3     2 1   
     3     4     5 1   
     4     2     1 1   
     5     5     6 1   
     6     1     6 1   
     7     6     7 1   
     8     7     8 1   
     9     9    10 1   
    10     9     8 1   
    11    10    11 1   
    12     8    12 1   
    13    12    11 1   
    14    12    13 2   
    15    11    17 1   
    16    18    17 ar  
    17    18    19 ar  
    18    17    16 ar  
    19    13    14 1   
    20    19    20 ar  
    21    16    14 1   
    22    16    21 ar  
    23    14    15 2   
    24    20    21 ar  
    25     1    22 1   
    26     1    23 1   
    27     2    24 1   
    28     2    25 1   
    29     3    26 1   
    30     3    27 1   
    31     4    28 1   
    32     4    29 1   
    33     5    30 1   
    34     5    31 1   
    35     7    32 1   
    36     7    33 1   
    37     8    34 1   
    38     9    35 1   
    39     9    36 1   
    40    10    37 1   
    41    10    38 1   
    42    18    39 1   
    43    19    40 1   
    44    20    41 1   
    45    21    42 1   
@<TRIPOS>SUBSTRUCTURE
     1 5XM         1 TEMP              0 ****  ****    0 ROOT
