@<TRIPOS>MOLECULE
molecule
   38    40     1     0     0
SMALL
bcc


@<TRIPOS>ATOM
      1 C1           0.0000     0.0000     0.0000 cc         1 5XN      -0.277400
      2 C2           1.3680     0.0000     0.0000 cd         1 5XN       0.007300
      3 O3           1.7620     0.0000     1.2820 os         1 5XN      -0.034200
      4 N4           0.8240    -0.0000     2.0450 ns         1 5XN      -0.421400
      5 C5          -0.3440    -0.0010     1.3720 c          1 5XN       0.648700
      6 C6           2.2470     0.0000    -1.1910 cd         1 5XN       0.566800
      7 N7           1.8570     0.0010    -2.4750 nd         1 5XN      -0.400000
      8 N8           2.9240     0.0010    -3.1990 nc         1 5XN      -0.171800
      9 N9           3.9540     0.0010    -2.4260 na         1 5XN       0.321900
     10 N10          3.5660     0.0060    -1.1960 nc         1 5XN      -0.533800
     11 C11          5.3490     0.0020    -2.8730 c3         1 5XN       0.125600
     12 C12          6.7050     4.0310    -3.3030 ca         1 5XN      -0.095000
     13 C13          6.1190     3.3800    -4.3750 ca         1 5XN       0.025400
     14 C14          5.6800     2.0760    -4.2350 ca         1 5XN      -0.090000
     15 C15          5.8270     1.4230    -3.0250 ca         1 5XN      -0.141300
     16 C16          6.4120     2.0730    -1.9550 ca         1 5XN      -0.094000
     17 C17          6.8550     3.3760    -2.0960 ca         1 5XN      -0.120000
     18 O23         -1.4680    -0.0010     1.8480 o          1 5XN      -0.591500
     19 C24         -0.9270     0.0050    -1.1880 c3         1 5XN      -0.001200
     20 C25         -1.3450    -1.4300    -1.5150 c3         1 5XN      -0.009500
     21 C26         -2.3670    -1.4160    -2.6230 c          1 5XN       0.870600
     22 O27         -2.0290    -1.6530    -3.7590 o          1 5XN      -0.775300
     23 O28         -3.6510    -1.1390    -2.3490 o          1 5XN      -0.775300
     24 N29         -0.1690    -2.1980    -1.9440 nz         1 5XN      -0.791600
     25 H1           0.9050    -0.0010     3.0430 hn         1 5XN       0.406500
     26 H111         5.9630    -0.5100    -2.1420 h1         1 5XN       0.095700
     27 H112         5.4220    -0.5080    -3.8270 h1         1 5XN       0.095700
     28 H14          5.2460     1.5570    -5.0810 ha         1 5XN       0.154000
     29 H16          6.5500     1.5530    -1.0150 ha         1 5XN       0.142000
     30 H17          7.3100     3.8970    -1.2620 ha         1 5XN       0.147000
     31 H241        -1.8070     0.5930    -0.9570 hc         1 5XN       0.109700
     32 H242        -0.4180     0.4360    -2.0420 hc         1 5XN       0.109700
     33 H25         -1.7750    -1.8910    -0.6340 hx         1 5XN       0.109700
     34 H293         0.4820    -2.2630    -1.1860 hn         1 5XN       0.438800
     35 H291         0.2660    -1.7370    -2.7180 hn         1 5XN       0.438800
     36 H292        -0.4530    -3.1170    -2.2200 hn         1 5XN       0.438800
     37 Cl1          5.9350     4.2000    -5.8940 cl         1 5XN      -0.085400
     38 H12          7.0790     5.0410    -3.4220 ha         1 5XN       0.154000
@<TRIPOS>BOND
     1    22    21 1
     2    23    21 1
     3    21    20 1
     4    20    24 1
     5    20    19 1
     6    19     1 1
     7    18     5 2
     8     1     5 1
     9     1     2 2
    10     5     4 1
    11    10     6 2
    12    10     9 1
    13     2     6 1
    14     2     3 1
    15     4     3 1
    16    11     9 1
    17    11    15 1
    18     6     7 1
    19     9     8 1
    20    15    16 ar
    21    15    14 ar
    22     7     8 2
    23    16    17 ar
    24    14    13 ar
    25    17    12 ar
    26    13    12 ar
    27    13    37 1
    28     4    25 1
    29    11    26 1
    30    11    27 1
    31    12    38 1
    32    14    28 1
    33    16    29 1
    34    17    30 1
    35    19    31 1
    36    19    32 1
    37    20    33 1
    38    24    34 1
    39    24    35 1
    40    24    36 1
@<TRIPOS>SUBSTRUCTURE
     1 5XN         1 TEMP              0 ****  ****    0 ROOT
