@<TRIPOS>MOLECULE
5XO
   41    43     1     0     0
SMALL
bcc


@<TRIPOS>ATOM
      1 C1           0.0000     0.0000     0.0000 cc         1 5XO      -0.304400
      2 C2           1.3670     0.0000     0.0000 cd         1 5XO       0.009300
      3 O3           1.7620     0.0000     1.2820 os         1 5XO      -0.117200
      4 N4           0.8250     0.0000     2.0450 ns         1 5XO       0.011600
      5 C5          -0.3440     0.0000     1.3720 c          1 5XO       0.550700
      6 C6           2.2460     0.0000    -1.1920 cd         1 5XO       0.558800
      7 N7           1.8560     0.0000    -2.4750 nd         1 5XO      -0.356000
      8 N8           2.9250     0.0000    -3.1990 nc         1 5XO      -0.335800
      9 N9           3.9530     0.0010    -2.4270 na         1 5XO       0.755900
     10 N10          3.5660     0.0060    -1.1970 nc         1 5XO      -0.662800
     11 C11          5.3490     0.0010    -2.8740 c3         1 5XO       0.051600
     12 C12          6.7040     4.0280    -3.3060 ca         1 5XO      -0.073000
     13 C13          6.8510     3.3760    -2.0960 ca         1 5XO      -0.086300
     14 C14          6.4130     2.0730    -1.9570 ca         1 5XO      -0.072000
     15 C15          5.8270     1.4220    -3.0260 ca         1 5XO      -0.163300
     16 C16          5.6810     2.0740    -4.2360 ca         1 5XO      -0.073000
     17 C17          6.1140     3.3800    -4.3750 ca         1 5XO      -0.091000
     18 O23         -1.4680     0.0000     1.8490 o          1 5XO      -0.640500
     19 C24         -0.9270     0.0050    -1.1870 c3         1 5XO       0.076800
     20 C25         -1.3460    -1.4300    -1.5150 c3         1 5XO      -0.176500
     21 C26         -2.3670    -1.4160    -2.6220 c          1 5XO       0.951600
     22 O27         -3.6520    -1.1390    -2.3470 o          1 5XO      -0.815800
     23 O28         -2.0300    -1.6530    -3.7570 o          1 5XO      -0.815800
     24 N29         -0.1700    -2.1980    -1.9430 nz         1 5XO      -0.070600
     25 H4           0.9050     0.0000     3.0430 hn         1 5XO       0.227500
     26 H111         5.9620    -0.5100    -2.1420 h1         1 5XO       0.056200
     27 H112         5.4230    -0.5100    -3.8260 h1         1 5XO       0.056200
     28 H16          5.2190     1.5650    -5.0730 ha         1 5XO       0.115000
     29 H17          6.0000     3.8910    -5.3230 ha         1 5XO       0.113000
     30 H241        -1.8070     0.5940    -0.9560 hc         1 5XO       0.073200
     31 H242        -0.4190     0.4370    -2.0410 hc         1 5XO       0.073200
     32 H25         -1.7760    -1.8910    -0.6330 hx         1 5XO       0.092700
     33 H292        -0.5250    -2.6630    -1.1310 hn         1 5XO       0.251800
     34 H291         0.7050    -1.7310    -1.8060 hn         1 5XO       0.251800
     35 H1           7.7520     3.3640    -0.1670 hc         1 5XO       0.011700
     36 H3           6.7890     4.8050    -0.5190 hc         1 5XO       0.011700
     37 H2           8.3800     4.6010    -1.2640 hc         1 5XO       0.011700
     38 C18          7.4880     4.0860    -0.9300 c3         1 5XO       0.063200
     39 H12          7.0460     5.0510    -3.4150 ha         1 5XO       0.112000
     40 H293        -0.2900    -2.7030    -2.7980 hn         1 5XO       0.251800
     41 H14          6.5270     1.5620    -1.0080 ha         1 5XO       0.114000
@<TRIPOS>BOND
     1     1     2 2   
     2     1     5 1   
     3     1    19 1   
     4     2     3 1   
     5     2     6 1   
     6     3     4 1   
     7     4     5 1   
     8     4    25 1   
     9     5    18 2   
    10     6     7 1   
    11     6    10 2   
    12     7     8 2   
    13     8     9 1   
    14     9    10 1   
    15     9    11 1   
    16    11    15 1   
    17    11    26 1   
    18    11    27 1   
    19    12    13 ar  
    20    12    17 ar  
    21    12    39 1   
    22    13    14 ar  
    23    13    38 1   
    24    14    15 ar  
    25    14    41 1   
    26    15    16 ar  
    27    16    17 ar  
    28    16    28 1   
    29    17    29 1   
    30    19    20 1   
    31    19    30 1   
    32    19    31 1   
    33    20    21 1   
    34    20    24 1   
    35    20    32 1   
    36    21    22 1   
    37    21    23 1   
    38    24    33 1   
    39    24    34 1   
    40    24    40 1   
    41    35    38 1   
    42    36    38 1   
    43    37    38 1   
@<TRIPOS>SUBSTRUCTURE
     1 5XO         1 TEMP              0 ****  ****    0 ROOT
