@<TRIPOS>MOLECULE
molecule
   40    42     1     0     0
SMALL
bcc


@<TRIPOS>ATOM
      1 C10          0.0000     0.0000     0.0000 cc         1 5XQ      -0.225400
      2 C11          2.1370     0.0010    -1.2500 cc         1 5XQ      -0.199900
      3 C12          3.1220     0.0060    -3.5370 cc         1 5XQ       0.604300
      4 C13          3.4820     0.0020    -1.3340 cd         1 5XQ       0.439600
      5 C14          4.3640    -0.0000    -0.1130 c3         1 5XQ      -0.111400
      6 C15          4.7460     0.0090    -5.2640 c          1 5XQ       0.643100
      7 C01          2.1020     1.7130     7.3530 c3         1 5XQ       0.130700
      8 C02          0.7960     0.4460     5.8210 ca         1 5XQ       0.109100
      9 C03         -0.1500     0.3120     6.8250 ca         1 5XQ      -0.191000
     10 C04         -1.3110    -0.4010     6.5890 ca         1 5XQ      -0.114000
     11 C05         -1.5320    -0.9830     5.3550 ca         1 5XQ      -0.129000
     12 C06         -0.5940    -0.8530     4.3480 ca         1 5XQ      -0.151000
     13 C07          0.5710    -0.1350     4.5750 ca         1 5XQ       0.133600
     14 C08          1.1180     0.0010     2.2290 cd         1 5XQ       0.743300
     15 N02          1.9150     0.0000     1.2050 nc         1 5XQ      -0.753000
     16 C09          1.3460     0.0000     0.0000 cc         1 5XQ       0.513800
     17 S01         -0.5530     0.0060     1.6740 ss         1 5XQ      -0.255300
     18 S            1.4850     0.0100    -2.8870 ss         1 5XQ      -0.272300
     19 N03          3.9730     0.0030    -2.5540 nd         1 5XQ      -0.681000
     20 N            3.4520     0.0090    -4.8860 ns         1 5XQ      -0.533400
     21 C            5.1040     0.0110    -6.7280 c3         1 5XQ      -0.169100
     22 O            5.6220     0.0050    -4.4250 o          1 5XQ      -0.523100
     23 H1          -0.6350     0.0000    -0.8780 h4         1 5XQ       0.181000
     24 H2           5.4030    -0.0010    -0.4180 hc         1 5XQ       0.058367
     25 H3           4.1600    -0.8850     0.4780 hc         1 5XQ       0.058367
     26 H4           4.1630     0.8840     0.4800 hc         1 5XQ       0.058367
     27 H5           2.0860     0.9240     8.0950 h1         1 5XQ       0.043700
     28 H6           3.0470     2.2390     7.4050 h1         1 5XQ       0.043700
     29 H7           1.2920     2.4070     7.5460 h1         1 5XQ       0.043700
     30 H8           0.0200     0.7660     7.7930 ha         1 5XQ       0.140000
     31 H9          -2.0490    -0.5060     7.3750 ha         1 5XQ       0.134000
     32 H10         -2.4420    -1.5420     5.1770 ha         1 5XQ       0.137000
     33 H11         -0.7710    -1.3080     3.3810 ha         1 5XQ       0.157000
     34 H12          2.4930     0.0680     3.7820 hn         1 5XQ       0.477800
     35 H13          2.7290     0.0110    -5.5780 hn         1 5XQ       0.333500
     36 H14          4.6930    -0.8730    -7.2010 hc         1 5XQ       0.064033
     37 H15          6.1820     0.0090    -6.8360 hc         1 5XQ       0.064033
     38 H16          4.6950     0.8960    -7.1980 hc         1 5XQ       0.064033
     39 N01          1.5210     0.0030     3.5550 nu         1 5XQ      -0.736300
     40 O01          1.9390     1.1460     6.0510 os         1 5XQ      -0.332900
@<TRIPOS>BOND
     1    10     9 ar  
     2    10    11 ar  
     3     9     8 ar  
     4    11    12 ar  
     5     7    40 1   
     6     8    40 1   
     7     8    13 ar  
     8    22     6 2   
     9    12    13 ar  
    10    21     6 1   
    11    13    39 1   
    12     6    20 1   
    13    39    14 1   
    14    20     3 1   
    15    18     3 1   
    16    18     2 1   
    17    15    14 2   
    18    15    16 1   
    19     3    19 2   
    20    14    17 1   
    21     2    16 1   
    22     2     4 2   
    23    16     1 2   
    24    19     4 1   
    25    17     1 1   
    26     4     5 1   
    27     1    23 1   
    28     5    24 1   
    29     5    25 1   
    30     5    26 1   
    31     7    27 1   
    32     7    28 1   
    33     7    29 1   
    34     9    30 1   
    35    10    31 1   
    36    11    32 1   
    37    12    33 1   
    38    39    34 1   
    39    20    35 1   
    40    21    36 1   
    41    21    37 1   
    42    21    38 1   
@<TRIPOS>SUBSTRUCTURE
     1 5XQ         1 TEMP              0 ****  ****    0 ROOT
