@<TRIPOS>MOLECULE
5XQ
   40    42     1     0     0
SMALL
bcc


@<TRIPOS>ATOM
      1 C10          0.0000     0.0000     0.0000 cc         1 5XQ      -0.170400
      2 C11          2.1370     0.0010    -1.2500 cd         1 5XQ      -0.167900
      3 C12          3.1220     0.0060    -3.5370 cd         1 5XQ       0.430300
      4 C13          3.4820     0.0020    -1.3340 cc         1 5XQ       0.389600
      5 C14          4.3640    -0.0000    -0.1130 c3         1 5XQ      -0.026400
      6 C15          4.7460     0.0090    -5.2640 c          1 5XQ       0.535100
      7 C01          2.1020     1.7130     7.3530 c3         1 5XQ       0.249700
      8 C02          0.7960     0.4460     5.8210 ca         1 5XQ       0.125100
      9 C03         -0.1500     0.3120     6.8250 ca         1 5XQ      -0.182000
     10 C04         -1.3110    -0.4010     6.5890 ca         1 5XQ      -0.076000
     11 C05         -1.5320    -0.9830     5.3550 ca         1 5XQ      -0.103000
     12 C06         -0.5940    -0.8530     4.3480 ca         1 5XQ      -0.130000
     13 C07          0.5710    -0.1350     4.5750 ca         1 5XQ      -0.045400
     14 C08          1.1180     0.0010     2.2290 cc         1 5XQ       0.568300
     15 N02          1.9150     0.0000     1.2050 nd         1 5XQ      -0.653000
     16 C09          1.3460     0.0000     0.0000 cd         1 5XQ       0.493800
     17 S01         -0.5530     0.0060     1.6740 ss         1 5XQ      -0.340300
     18 S            1.4850     0.0100    -2.8870 ss         1 5XQ      -0.353300
     19 N03          3.9730     0.0030    -2.5540 nc         1 5XQ      -0.547000
     20 N            3.4520     0.0090    -4.8860 ns         1 5XQ      -0.075400
     21 C            5.1040     0.0110    -6.7280 c3         1 5XQ      -0.065100
     22 O            5.6220     0.0050    -4.4250 o          1 5XQ      -0.562100
     23 H1          -0.6350     0.0000    -0.8780 h4         1 5XQ       0.168000
     24 H2           5.4030    -0.0010    -0.4180 hc         1 5XQ       0.022033
     25 H3           4.1600    -0.8850     0.4780 hc         1 5XQ       0.022033
     26 H4           4.1630     0.8840     0.4800 hc         1 5XQ       0.022033
     27 H5           2.0860     0.9240     8.0950 h1         1 5XQ      -0.000633
     28 H6           3.0470     2.2390     7.4050 h1         1 5XQ      -0.000633
     29 H7           1.2920     2.4070     7.5460 h1         1 5XQ      -0.000633
     30 H8           0.0200     0.7660     7.7930 ha         1 5XQ       0.122000
     31 H9          -2.0490    -0.5060     7.3750 ha         1 5XQ       0.103000
     32 H10         -2.4420    -1.5420     5.1770 ha         1 5XQ       0.108000
     33 H11         -0.7710    -1.3080     3.3810 ha         1 5XQ       0.149000
     34 H12          2.4930     0.0680     3.7820 hn         1 5XQ       0.300800
     35 H13          2.7290     0.0110    -5.5780 hn         1 5XQ       0.172500
     36 H14          4.6930    -0.8730    -7.2010 hc         1 5XQ       0.024367
     37 H15          6.1820     0.0090    -6.8360 hc         1 5XQ       0.024367
     38 H16          4.6950     0.8960    -7.1980 hc         1 5XQ       0.024367
     39 N01          1.5210     0.0030     3.5550 nu         1 5XQ      -0.241300
     40 O01          1.9390     1.1460     6.0510 os         1 5XQ      -0.314900
@<TRIPOS>BOND
     1     1    16 2   
     2     1    17 1   
     3     1    23 1   
     4     2     4 2   
     5     2    16 1   
     6     2    18 1   
     7     3    18 1   
     8     3    19 2   
     9     3    20 1   
    10     4     5 1   
    11     4    19 1   
    12     5    24 1   
    13     5    25 1   
    14     5    26 1   
    15     6    20 1   
    16     6    21 1   
    17     6    22 2   
    18     7    27 1   
    19     7    28 1   
    20     7    29 1   
    21     7    40 1   
    22     8     9 ar  
    23     8    13 ar  
    24     8    40 1   
    25     9    10 ar  
    26     9    30 1   
    27    10    11 ar  
    28    10    31 1   
    29    11    12 ar  
    30    11    32 1   
    31    12    13 ar  
    32    12    33 1   
    33    13    39 1   
    34    14    15 2   
    35    14    17 1   
    36    14    39 1   
    37    15    16 1   
    38    20    35 1   
    39    21    36 1   
    40    21    37 1   
    41    21    38 1   
    42    34    39 1   
@<TRIPOS>SUBSTRUCTURE
     1 5XQ         1 TEMP              0 ****  ****    0 ROOT
