@<TRIPOS>MOLECULE
molecule
   33    35     1     0     0
SMALL
bcc


@<TRIPOS>ATOM
      1 C10          0.0000     0.0000     0.0000 c          1 5XS       0.663700
      2 N12          1.3470     0.0000     0.0000 ns         1 5XS      -0.553400
      3 C13          2.0420     0.0000     1.2040 ca         1 5XS       0.610200
      4 C15          2.0440     0.0010     3.5120 ca         1 5XS       0.704900
      5 C17          4.0930     0.0050     2.4650 ca         1 5XS       0.639300
      6 C21          3.4370     0.0050     1.2220 ca         1 5XS      -0.399800
      7 C22         -2.1320     0.0010    -1.2830 ca         1 5XS      -0.004000
      8 C01         -6.4130     0.0140    -3.6140 c3         1 5XS       0.141700
      9 O02         -4.9620     0.0130    -3.6790 os         1 5XS      -0.431900
     10 O04         -4.9140     0.0030    -1.4600 o          1 5XS      -0.536000
     11 C05         -2.8200     0.0060    -2.4950 ca         1 5XS      -0.137600
     12 C06         -2.1110     0.0100    -3.6980 ca         1 5XS      -0.056000
     13 C07         -0.7300     0.0100    -3.6880 ca         1 5XS      -0.151000
     14 C08         -0.0420     0.0040    -2.4910 ca         1 5XS      -0.083000
     15 C09         -0.7390     0.0000    -1.2810 ca         1 5XS      -0.164600
     16 O11         -0.6080    -0.0040     1.0520 o          1 5XS      -0.509100
     17 N14          1.3910     0.0000     2.3640 nb         1 5XS      -0.727000
     18 N16          3.3570     0.0010     3.5790 nb         1 5XS      -0.716000
     19 N18          5.4150     0.0050     2.2070 nc         1 5XS      -0.668700
     20 C19          5.6130     0.0120     0.9180 cd         1 5XS       0.456700
     21 N20          4.4290     0.0100     0.2650 na         1 5XS      -0.255300
     22 H1           1.8480    -0.0310    -0.8660 hn         1 5XS       0.323500
     23 H2           1.4750     0.0010     4.4340 h5         1 5XS       0.072100
     24 H3          -2.6750    -0.1080    -0.3520 ha         1 5XS       0.186000
     25 H4          -6.7500     0.8960    -3.0850 h1         1 5XS       0.051700
     26 H5          -6.8190     0.0180    -4.6190 h1         1 5XS       0.051700
     27 H6          -6.7510    -0.8730    -3.0920 h1         1 5XS       0.051700
     28 H7          -2.6450     0.0140    -4.6410 ha         1 5XS       0.155000
     29 H8          -0.1840     0.0130    -4.6240 ha         1 5XS       0.140000
     30 H9           1.0420     0.0040    -2.4910 ha         1 5XS       0.119000
     31 H11          6.5850     0.0190     0.4400 h5         1 5XS       0.081800
     32 H12          4.2980     0.0140    -0.7270 hn         1 5XS       0.298700
     33 C03         -4.2980     0.0070    -2.5060 c          1 5XS       0.646700
@<TRIPOS>BOND
     1     8     9 1
     2    10    33 2
     3     9    33 1
     4    33    11 1
     5    11    12 ar
     6    11     7 ar
     7    12    13 ar
     8     7    15 ar
     9    13    14 ar
    10    15    14 ar
    11    15     1 1
    12    20    21 1
    13    20    19 2
    14    21     6 1
    15    16     1 2
    16     1     2 1
    17    19     5 1
    18     2     3 1
    19     6     5 ar
    20     6     3 ar
    21     5    18 ar
    22     3    17 ar
    23    18     4 ar
    24    17     4 ar
    25     2    22 1
    26     4    23 1
    27     7    24 1
    28     8    25 1
    29     8    26 1
    30     8    27 1
    31    12    28 1
    32    13    29 1
    33    14    30 1
    34    20    31 1
    35    21    32 1
@<TRIPOS>SUBSTRUCTURE
     1 5XS         1 TEMP              0 ****  ****    0 ROOT
