@<TRIPOS>MOLECULE
5XT
   39    41     1     0     0
SMALL
bcc


@<TRIPOS>ATOM
      1 CAG          0.0000     0.0000     0.0000 ca         1 5XT      -0.163000
      2 CAW          1.3850     0.0000     0.0000 ca         1 5XT       0.116100
      3 OAD          2.0650     0.0010    -1.1770 oh         1 5XT      -0.489100
      4 CAR          2.0790     0.0000     1.2060 ca         1 5XT       0.084100
      5 OAA          3.4410    -0.0000     1.2070 oh         1 5XT      -0.490100
      6 CAE          1.3870     0.0010     2.4040 ca         1 5XT      -0.111000
      7 CAF          0.0040     0.0010     2.4050 ca         1 5XT      -0.149000
      8 CAS         -0.6920     0.0000     1.2040 ca         1 5XT       0.060600
      9 NAQ         -2.0910     0.0060     1.2070 nu         1 5XT      -0.399500
     10 SAX         -2.9230    -1.0270     2.1980 sy         1 5XT       1.042200
     11 OAB         -2.3910    -0.8460     3.5030 o          1 5XT      -0.587300
     12 OAC         -4.2990    -0.8610     1.8880 o          1 5XT      -0.587300
     13 CAV         -2.4990    -2.6680     1.7130 ca         1 5XT      -0.165500
     14 CAP         -3.1760    -3.2750     0.6710 ca         1 5XT       0.012500
     15 CAN         -2.8480    -4.5600     0.2870 ca         1 5XT      -0.137000
     16 CAO         -1.4860    -3.3420     2.3720 ca         1 5XT       0.012500
     17 CAM         -1.1500    -4.6260     1.9960 ca         1 5XT      -0.137000
     18 CAU         -1.8320    -5.2450     0.9510 cp         1 5XT       0.033000
     19 CAT         -1.4750    -6.6260     0.5430 cp         1 5XT      -0.053000
     20 CAK         -2.1510    -7.2400    -0.5090 ca         1 5XT      -0.089500
     21 CAI         -1.8160    -8.5260    -0.8850 ca         1 5XT      -0.099000
     22 CAH         -0.8100    -9.2030    -0.2190 ca         1 5XT      -0.091000
     23 CAJ         -0.1360    -8.5980     0.8260 ca         1 5XT      -0.099000
     24 CAL         -0.4600    -7.3110     1.2060 ca         1 5XT      -0.089500
     25 H1          -0.5430    -0.0000    -0.9380 ha         1 5XT       0.119000
     26 H3           1.9280     0.0020     3.3430 ha         1 5XT       0.116000
     27 H5          -0.5370     0.0020     3.3430 ha         1 5XT       0.166000
     28 H6          -2.5890     0.6650     0.6410 hn         1 5XT       0.347800
     29 H7          -3.9650    -2.7420     0.1560 ha         1 5XT       0.122000
     30 H8          -3.3800    -5.0350    -0.5280 ha         1 5XT       0.118500
     31 H9          -0.9560    -2.8600     3.1850 ha         1 5XT       0.122000
     32 H10         -0.3580    -5.1530     2.5150 ha         1 5XT       0.118500
     33 H11         -2.9380    -6.7110    -1.0310 ha         1 5XT       0.111500
     34 H12         -2.3400    -9.0040    -1.7030 ha         1 5XT       0.105000
     35 H13         -0.5510   -10.2130    -0.5150 ha         1 5XT       0.103000
     36 H14          0.6520    -9.1320     1.3430 ha         1 5XT       0.105000
     37 H15          0.0690    -6.8380     2.0250 ha         1 5XT       0.111500
     38 H2           2.0130    -0.8550    -1.5710 ho         1 5XT       0.405000
     39 H16          3.7550     0.8540     1.4520 ho         1 5XT       0.404000
@<TRIPOS>BOND
     1     1     2 ar  
     2     1     8 ar  
     3     1    25 1   
     4     2     3 1   
     5     2     4 ar  
     6     3    38 1   
     7     4     5 1   
     8     4     6 ar  
     9     5    39 1   
    10     6     7 ar  
    11     6    26 1   
    12     7     8 ar  
    13     7    27 1   
    14     8     9 1   
    15     9    10 1   
    16     9    28 1   
    17    10    11 2   
    18    10    12 2   
    19    10    13 1   
    20    13    14 ar  
    21    13    16 ar  
    22    14    15 ar  
    23    14    29 1   
    24    15    18 ar  
    25    15    30 1   
    26    16    17 ar  
    27    16    31 1   
    28    17    18 ar  
    29    17    32 1   
    30    18    19 1   
    31    19    20 ar  
    32    19    24 ar  
    33    20    21 ar  
    34    20    33 1   
    35    21    22 ar  
    36    21    34 1   
    37    22    23 ar  
    38    22    35 1   
    39    23    24 ar  
    40    23    36 1   
    41    24    37 1   
@<TRIPOS>SUBSTRUCTURE
     1 5XT         1 TEMP              0 ****  ****    0 ROOT
