@<TRIPOS>MOLECULE
molecule
   42    44     1     0     0
SMALL
bcc


@<TRIPOS>ATOM
      1 C1           0.0000     0.0000     0.0000 cc         1 5XV      -0.119000
      2 C2           1.4140     0.0000     0.0000 cc         1 5XV      -0.177500
      3 C3           2.0950     0.0000     1.1800 cd         1 5XV      -0.037300
      4 C11          2.1560    -0.0010    -1.2830 ca         1 5XV       0.338500
      5 C12          1.8880    -0.0050     6.5380 c          1 5XV       0.663100
      6 C13          1.8740    -0.0030     8.0450 c3         1 5XV      -0.167100
      7 C16          4.1490     0.0030    -2.4280 ca         1 5XV       0.481300
      8 C17          3.4450    -0.0030    -3.6380 ca         1 5XV       0.594900
      9 C19          1.4610    -0.0010    -2.4880 ca         1 5XV       0.334900
     10 C21          6.1570     0.0100    -1.1580 c3         1 5XV       0.101100
     11 C22          7.5010     0.7290    -1.2770 c3         1 5XV       0.618900
     12 C23          6.3890    -1.4310    -0.6970 c3         1 5XV      -0.113100
     13 N4           1.4230    -0.0000     2.3650 na         1 5XV       0.048700
     14 C5           0.0540     0.0000     2.3910 cd         1 5XV      -0.013300
     15 C6          -0.6700     0.0070     1.1810 cd         1 5XV      -0.088000
     16 C7           1.8500    -0.0010     3.6680 cd         1 5XV      -0.247100
     17 C8           0.7420    -0.0000     4.4510 cc         1 5XV       0.212200
     18 N9          -0.3380     0.0050     3.6590 nc         1 5XV      -0.348600
     19 N10          0.7280     0.0010     5.8530 ns         1 5XV      -0.448100
     20 O14          2.9440    -0.0110     5.9410 o          1 5XV      -0.605100
     21 N15          3.4880     0.0050    -1.2830 nb         1 5XV      -0.713000
     22 N18          2.1200    -0.0020    -3.6340 nb         1 5XV      -0.703000
     23 N20          4.1370    -0.0090    -4.8460 nv         1 5XV      -0.994500
     24 F24          8.3060     0.0650    -2.2090 f          1 5XV      -0.218967
     25 F25          7.2890     2.0460    -1.6990 f          1 5XV      -0.218967
     26 F26          8.1390     0.7360    -0.0310 f          1 5XV      -0.218967
     27 O27          5.5060     0.0030    -2.4310 os         1 5XV      -0.433100
     28 H28         -0.5450     0.0000    -0.9360 ha         1 5XV       0.143000
     29 H29          3.1780     0.0000     1.1750 h4         1 5XV       0.181000
     30 H34          2.8920     0.0020     8.4150 hc         1 5XV       0.065700
     31 H35          1.3640    -0.8890     8.4020 hc         1 5XV       0.065700
     32 H33          1.3570     0.8800     8.4000 hc         1 5XV       0.065700
     33 H36          0.3770    -0.0000    -2.4870 h4         1 5XV       0.039100
     34 H39          5.5340     0.5240    -0.4360 h1         1 5XV       0.102700
     35 H42          7.4510    -1.6470    -0.7080 hc         1 5XV       0.059700
     36 H41          6.0060    -1.5540     0.3090 hc         1 5XV       0.059700
     37 H40          5.8750    -2.1110    -1.3650 hc         1 5XV       0.059700
     38 H30         -1.7540     0.0070     1.1940 ha         1 5XV       0.161000
     39 H31          2.8780    -0.0050     4.0080 h4         1 5XV       0.227000
     40 H32         -0.1440     0.0280     6.3450 hn         1 5XV       0.337500
     41 H37          3.6340    -0.0100    -5.7110 hn         1 5XV       0.451300
     42 H38          5.1380    -0.0270    -4.8490 hn         1 5XV       0.451300
@<TRIPOS>BOND
     1     6     5 1   
     2     5    19 1   
     3     5    20 2   
     4    19    17 1   
     5    17    18 1   
     6    17    16 2   
     7    18    14 2   
     8    16    13 1   
     9    14    15 1   
    10    14    13 1   
    11    15     1 2   
    12    13     3 1   
    13     1     2 1   
    14     3     2 2   
    15     2     4 1   
    16     4     9 ar  
    17     4    21 ar  
    18     9    22 ar  
    19    21     7 ar  
    20    22     8 ar  
    21     7     8 ar  
    22     7    27 1   
    23    10    12 1   
    24    10    27 1   
    25    10    11 1   
    26     8    23 1   
    27    25    11 1   
    28    26    11 1   
    29    11    24 1   
    30     1    28 1   
    31     3    29 1   
    32     6    30 1   
    33     6    31 1   
    34     6    32 1   
    35     9    33 1   
    36    10    34 1   
    37    12    35 1   
    38    12    36 1   
    39    12    37 1   
    40    15    38 1   
    41    16    39 1   
    42    19    40 1   
    43    23    41 1   
    44    23    42 1   
@<TRIPOS>SUBSTRUCTURE
     1 5XV         1 TEMP              0 ****  ****    0 ROOT
