@<TRIPOS>MOLECULE
5XX
   60    64     1     0     0
SMALL
bcc


@<TRIPOS>ATOM
      1 C10          0.0000     0.0000     0.0000 cc         1 5XX       0.397300
      2 C13         -1.1200    -0.0110    -3.5880 c3         1 5XX      -0.031100
      3 C15          0.1490    -1.2060    -5.3840 ca         1 5XX      -0.082500
      4 C17          1.3330    -0.0070    -7.0860 ca         1 5XX      -0.097000
      5 C22          5.6710     1.9110     4.7020 cc         1 5XX       0.556300
      6 C28         11.4350     3.8380     3.2820 c3         1 5XX      -0.030100
      7 C01          3.1700    -0.5620     5.3430 c3         1 5XX      -0.042400
      8 C02          4.5110     0.1170     5.7140 c3         1 5XX       0.145800
      9 N03          4.4240     1.4710     5.1270 nh         1 5XX      -0.434300
     10 C04          3.4650     1.4360     4.0080 c3         1 5XX       0.097800
     11 C05          2.9190    -0.0050     3.9180 c3         1 5XX       0.122500
     12 N06          1.4590     0.0010     3.5890 nu         1 5XX      -0.462900
     13 C07          1.0800     0.0010     2.2530 cc         1 5XX       0.580300
     14 N08          1.8920     0.0000     1.2410 nd         1 5XX      -0.393000
     15 N09          1.2950     0.0000     0.0000 nd         1 5XX      -0.252000
     16 N11         -0.8070    -0.0050    -1.1350 ns         1 5XX      -0.080400
     17 C12         -0.2470    -0.0050    -2.3610 c          1 5XX       0.530100
     18 C14         -0.2530    -0.0090    -4.8220 ca         1 5XX      -0.076300
     19 C16          0.9440    -1.2050    -6.5150 ca         1 5XX      -0.096500
     20 C18          0.9340     1.1900    -6.5190 ca         1 5XX      -0.096500
     21 C19          0.1390     1.1890    -5.3900 ca         1 5XX      -0.082500
     22 O20          0.9610     0.0000    -2.4750 o          1 5XX      -0.542100
     23 S21         -0.5780     0.0010     1.6630 ss         1 5XX      -0.468800
     24 N23          5.9760     2.2380     3.4840 nd         1 5XX      -0.330000
     25 N24          7.2770     2.6480     3.2880 nd         1 5XX      -0.280000
     26 C25          8.0280     2.6550     4.3430 cc         1 5XX       0.415300
     27 N26          9.3690     3.0310     4.3760 ns         1 5XX      -0.079400
     28 C27          9.9850     3.4300     3.2460 c          1 5XX       0.529100
     29 C29         11.8800     4.2370     1.8980 ca         1 5XX      -0.078300
     30 C30         11.7610     5.5510     1.4870 ca         1 5XX      -0.082000
     31 C31         12.1680     5.9170     0.2170 ca         1 5XX      -0.096000
     32 C32         12.6950     4.9690    -0.6410 ca         1 5XX      -0.096000
     33 C33         12.8140     3.6550    -0.2280 ca         1 5XX      -0.096000
     34 C34         12.4120     3.2900     1.0430 ca         1 5XX      -0.082000
     35 O35          9.3720     3.4610     2.1990 o          1 5XX      -0.536100
     36 S36          7.0840     2.1190     5.7290 ss         1 5XX      -0.438800
     37 H1          -1.7490     0.8710    -3.5880 hc         1 5XX       0.029700
     38 H2          -1.7410    -0.8990    -3.5850 hc         1 5XX       0.029700
     39 H3          -0.1550    -2.1440    -4.9370 ha         1 5XX       0.101500
     40 H4           1.9560    -0.0060    -7.9720 ha         1 5XX       0.101000
     41 H5          11.5580     4.6760     3.9560 hc         1 5XX       0.029700
     42 H6          12.0360     3.0050     3.6280 hc         1 5XX       0.029700
     43 H7           2.3830    -0.2560     6.0210 hc         1 5XX       0.030200
     44 H8           3.2770    -1.6400     5.3220 hc         1 5XX       0.030200
     45 H9           5.3410    -0.4280     5.2800 h1         1 5XX       0.028700
     46 H10          4.6150     0.1800     6.7910 h1         1 5XX       0.028700
     47 H11          3.9690     1.6970     3.0840 h1         1 5XX       0.060700
     48 H12          2.6520     2.1260     4.1980 h1         1 5XX       0.060700
     49 H13          3.4790    -0.5790     3.1890 h1         1 5XX       0.071700
     50 H14          0.7810    -0.0570     4.3230 hn         1 5XX       0.302800
     51 H15         -1.8030    -0.0070    -1.0400 hn         1 5XX       0.170500
     52 H16          1.2580    -2.1430    -6.9580 ha         1 5XX       0.101500
     53 H17          1.2400     2.1280    -6.9660 ha         1 5XX       0.101500
     54 H18         -0.1730     2.1260    -4.9460 ha         1 5XX       0.101500
     55 H19          9.8750     3.0070     5.2400 hn         1 5XX       0.173500
     56 H20         11.3480     6.2940     2.1580 ha         1 5XX       0.102000
     57 H21         12.0750     6.9470    -0.1060 ha         1 5XX       0.102000
     58 H22         13.0120     5.2550    -1.6360 ha         1 5XX       0.101000
     59 H23         13.2290     2.9130    -0.8990 ha         1 5XX       0.102000
     60 H24         12.5060     2.2600     1.3650 ha         1 5XX       0.102000
@<TRIPOS>BOND
     1     1    15 2   
     2     1    16 1   
     3     1    23 1   
     4     2    17 1   
     5     2    18 1   
     6     2    37 1   
     7     2    38 1   
     8     3    18 ar  
     9     3    19 ar  
    10     3    39 1   
    11     4    19 ar  
    12     4    20 ar  
    13     4    40 1   
    14     5     9 1   
    15     5    24 2   
    16     5    36 1   
    17     6    28 1   
    18     6    29 1   
    19     6    41 1   
    20     6    42 1   
    21     7     8 1   
    22     7    11 1   
    23     7    43 1   
    24     7    44 1   
    25     8     9 1   
    26     8    45 1   
    27     8    46 1   
    28     9    10 1   
    29    10    11 1   
    30    10    47 1   
    31    10    48 1   
    32    11    12 1   
    33    11    49 1   
    34    12    13 1   
    35    12    50 1   
    36    13    14 2   
    37    13    23 1   
    38    14    15 1   
    39    16    17 1   
    40    16    51 1   
    41    17    22 2   
    42    18    21 ar  
    43    19    52 1   
    44    20    21 ar  
    45    20    53 1   
    46    21    54 1   
    47    24    25 1   
    48    25    26 2   
    49    26    27 1   
    50    26    36 1   
    51    27    28 1   
    52    27    55 1   
    53    28    35 2   
    54    29    30 ar  
    55    29    34 ar  
    56    30    31 ar  
    57    30    56 1   
    58    31    32 ar  
    59    31    57 1   
    60    32    33 ar  
    61    32    58 1   
    62    33    34 ar  
    63    33    59 1   
    64    34    60 1   
@<TRIPOS>SUBSTRUCTURE
     1 5XX         1 TEMP              0 ****  ****    0 ROOT
