@<TRIPOS>MOLECULE
molecule
   60    64     1     0     0
SMALL
bcc


@<TRIPOS>ATOM
      1 C10          0.0000     0.0000     0.0000 cc         1 5XX       0.549300
      2 C13         -1.1200    -0.0110    -3.5880 c3         1 5XX      -0.103100
      3 C15          0.1490    -1.2060    -5.3840 ca         1 5XX      -0.107500
      4 C17          1.3330    -0.0070    -7.0860 ca         1 5XX      -0.121000
      5 C22          5.6710     1.9110     4.7020 cc         1 5XX       0.617300
      6 C28         11.4350     3.8380     3.2820 c3         1 5XX      -0.103100
      7 C01          3.1700    -0.5620     5.3430 c3         1 5XX      -0.107400
      8 C02          4.5110     0.1170     5.7140 c3         1 5XX       0.155800
      9 N03          4.4240     1.4710     5.1270 nh         1 5XX      -0.665300
     10 C04          3.4650     1.4360     4.0080 c3         1 5XX       0.129800
     11 C05          2.9190    -0.0050     3.9180 c3         1 5XX       0.230500
     12 N06          1.4590     0.0010     3.5890 nu         1 5XX      -0.898900
     13 C07          1.0800     0.0010     2.2530 cc         1 5XX       0.713300
     14 N08          1.8920     0.0000     1.2410 nd         1 5XX      -0.402000
     15 N09          1.2950     0.0000     0.0000 nd         1 5XX      -0.296000
     16 N11         -0.8070    -0.0050    -1.1350 ns         1 5XX      -0.536400
     17 C12         -0.2470    -0.0050    -2.3610 c          1 5XX       0.641100
     18 C14         -0.2530    -0.0090    -4.8220 ca         1 5XX      -0.074300
     19 C16          0.9440    -1.2050    -6.5150 ca         1 5XX      -0.124500
     20 C18          0.9340     1.1900    -6.5190 ca         1 5XX      -0.124500
     21 C19          0.1390     1.1890    -5.3900 ca         1 5XX      -0.107500
     22 O20          0.9610     0.0000    -2.4750 o          1 5XX      -0.507100
     23 S21         -0.5780     0.0010     1.6630 ss         1 5XX      -0.421800
     24 N23          5.9760     2.2380     3.4840 nd         1 5XX      -0.360000
     25 N24          7.2770     2.6480     3.2880 nd         1 5XX      -0.314000
     26 C25          8.0280     2.6550     4.3430 cc         1 5XX       0.555300
     27 N26          9.3690     3.0310     4.3760 ns         1 5XX      -0.536400
     28 C27          9.9850     3.4300     3.2460 c          1 5XX       0.640100
     29 C29         11.8800     4.2370     1.8980 ca         1 5XX      -0.074300
     30 C30         11.7610     5.5510     1.4870 ca         1 5XX      -0.107000
     31 C31         12.1680     5.9170     0.2170 ca         1 5XX      -0.124000
     32 C32         12.6950     4.9690    -0.6410 ca         1 5XX      -0.120000
     33 C33         12.8140     3.6550    -0.2280 ca         1 5XX      -0.124000
     34 C34         12.4120     3.2900     1.0430 ca         1 5XX      -0.107000
     35 O35          9.3720     3.4610     2.1990 o          1 5XX      -0.504100
     36 S36          7.0840     2.1190     5.7290 ss         1 5XX      -0.374800
     37 H1          -1.7490     0.8710    -3.5880 hc         1 5XX       0.066200
     38 H2          -1.7410    -0.8990    -3.5850 hc         1 5XX       0.066200
     39 H3          -0.1550    -2.1440    -4.9370 ha         1 5XX       0.128500
     40 H4           1.9560    -0.0060    -7.9720 ha         1 5XX       0.129000
     41 H5          11.5580     4.6760     3.9560 hc         1 5XX       0.066700
     42 H6          12.0360     3.0050     3.6280 hc         1 5XX       0.066700
     43 H7           2.3830    -0.2560     6.0210 hc         1 5XX       0.062700
     44 H8           3.2770    -1.6400     5.3220 hc         1 5XX       0.062700
     45 H9           5.3410    -0.4280     5.2800 h1         1 5XX       0.059700
     46 H10          4.6150     0.1800     6.7910 h1         1 5XX       0.059700
     47 H11          3.9690     1.6970     3.0840 h1         1 5XX       0.092200
     48 H12          2.6520     2.1260     4.1980 h1         1 5XX       0.092200
     49 H13          3.4790    -0.5790     3.1890 h1         1 5XX       0.098700
     50 H14          0.7810    -0.0570     4.3230 hn         1 5XX       0.457800
     51 H15         -1.8030    -0.0070    -1.0400 hn         1 5XX       0.332500
     52 H16          1.2580    -2.1430    -6.9580 ha         1 5XX       0.130500
     53 H17          1.2400     2.1280    -6.9660 ha         1 5XX       0.130500
     54 H18         -0.1730     2.1260    -4.9460 ha         1 5XX       0.128500
     55 H19          9.8750     3.0070     5.2400 hn         1 5XX       0.334500
     56 H20         11.3480     6.2940     2.1580 ha         1 5XX       0.128000
     57 H21         12.0750     6.9470    -0.1060 ha         1 5XX       0.130500
     58 H22         13.0120     5.2550    -1.6360 ha         1 5XX       0.130000
     59 H23         13.2290     2.9130    -0.8990 ha         1 5XX       0.130500
     60 H24         12.5060     2.2600     1.3650 ha         1 5XX       0.128000
@<TRIPOS>BOND
     1     2    17 1   
     2     2    18 1   
     3    15     1 2   
     4    15    14 1   
     5    16    17 1   
     6    16     1 1   
     7    17    22 2   
     8    18     3 ar  
     9    18    21 ar  
    10     1    23 1   
    11    14    13 2   
    12     3    19 ar  
    13    21    20 ar  
    14    19     4 ar  
    15    20     4 ar  
    16    33    32 ar  
    17    33    34 ar  
    18    32    31 ar  
    19    13    23 1   
    20    13    12 1   
    21    10    11 1   
    22    10     9 1   
    23    11    12 1   
    24    11     7 1   
    25    34    29 ar  
    26    31    30 ar  
    27    36     5 1   
    28    36    26 1   
    29     7     8 1   
    30     9     5 1   
    31     9     8 1   
    32    29    30 ar  
    33    29     6 1   
    34     5    24 2   
    35    27    26 1   
    36    27    28 1   
    37    26    25 2   
    38    35    28 2   
    39    28     6 1   
    40    24    25 1   
    41     2    37 1   
    42     2    38 1   
    43     3    39 1   
    44     4    40 1   
    45     6    41 1   
    46     6    42 1   
    47     7    43 1   
    48     7    44 1   
    49     8    45 1   
    50     8    46 1   
    51    10    47 1   
    52    10    48 1   
    53    11    49 1   
    54    12    50 1   
    55    16    51 1   
    56    19    52 1   
    57    20    53 1   
    58    21    54 1   
    59    27    55 1   
    60    30    56 1   
    61    31    57 1   
    62    32    58 1   
    63    33    59 1   
    64    34    60 1   
@<TRIPOS>SUBSTRUCTURE
     1 5XX         1 TEMP              0 ****  ****    0 ROOT
