@<TRIPOS>MOLECULE
5XY
   60    64     1     0     0
SMALL
bcc


@<TRIPOS>ATOM
      1 C10          0.0000     0.0000     0.0000 c3         1 5XY      -0.036400
      2 N12          0.7710    -0.5830     2.1940 nh         1 5XY      -0.449300
      3 C13          1.9440     0.0000     1.4920 c3         1 5XY       0.120800
      4 C17          0.4120     0.1730     5.9760 cc         1 5XY       0.419300
      5 C20          0.3260     1.0770     9.6250 c3         1 5XY      -0.031100
      6 C21          1.3140     1.9230    10.3850 ca         1 5XY      -0.079300
      7 C22          1.1270     3.2900    10.4760 ca         1 5XY      -0.082000
      8 C24          3.1270     3.4760    11.7800 ca         1 5XY      -0.095000
      9 C26          2.4050     1.3320    10.9950 ca         1 5XY      -0.082000
     10 C01          8.9110    -1.6530    -3.9720 c3         1 5XY      -0.031100
     11 C02          7.6810    -1.1820    -3.2390 c          1 5XY       0.530100
     12 C04          5.5030    -1.5820    -2.3840 cc         1 5XY       0.396300
     13 N05          5.3360    -0.3990    -1.8830 nd         1 5XY      -0.254000
     14 N06          4.1300    -0.1840    -1.2530 nd         1 5XY      -0.400000
     15 C07          3.3160    -1.1930    -1.2410 cc         1 5XY       0.580300
     16 N08          2.0520    -1.2010    -0.6640 nu         1 5XY      -0.454900
     17 C09          1.5430     0.0000     0.0000 c3         1 5XY       0.128500
     18 C11         -0.4010    -0.0020     1.4920 c3         1 5XY       0.140800
     19 C14          0.7720    -0.2310     3.5370 cc         1 5XY       0.560300
     20 N15          1.6590     0.5130     4.1190 nd         1 5XY      -0.330000
     21 N16          1.4620     0.7320     5.4650 nd         1 5XY      -0.285000
     22 C23          2.0340     4.0660    11.1730 ca         1 5XY      -0.096000
     23 C25          3.3110     2.1090    11.6930 ca         1 5XY      -0.096000
     24 O27          1.7620     1.5380     7.8100 o          1 5XY      -0.537100
     25 S28         -0.4420    -0.7150     4.7180 ss         1 5XY      -0.439800
     26 S29          4.0640    -2.5490    -2.0790 ss         1 5XY      -0.465800
     27 O30          7.6290    -0.0480    -2.8090 o          1 5XY      -0.544100
     28 C31          9.9180    -0.5350    -4.0330 ca         1 5XY      -0.077300
     29 C32          9.9030     0.3510    -5.0930 ca         1 5XY      -0.082000
     30 C33         10.8280     1.3770    -5.1490 ca         1 5XY      -0.097000
     31 C34         11.7690     1.5160    -4.1460 ca         1 5XY      -0.097000
     32 C35         11.7830     0.6290    -3.0850 ca         1 5XY      -0.097000
     33 C36         10.8550    -0.3940    -3.0260 ca         1 5XY      -0.082000
     34 H1          -0.3750    -0.8900    -0.4900 hc         1 5XY       0.029700
     35 H2          -0.3750     0.8920    -0.4880 hc         1 5XY       0.029700
     36 H3           2.1220     1.0120     1.8330 h1         1 5XY       0.053200
     37 H4           2.8200    -0.6180     1.6460 h1         1 5XY       0.053200
     38 H5          -0.6560     1.5310     9.6800 hc         1 5XY       0.030700
     39 H6           0.2900     0.0860    10.0600 hc         1 5XY       0.030700
     40 H7           0.2700     3.7520    10.0010 ha         1 5XY       0.101500
     41 H8           3.8380     4.0850    12.3260 ha         1 5XY       0.102000
     42 H9           2.5490     0.2600    10.9280 ha         1 5XY       0.101500
     43 H10          9.3410    -2.4990    -3.4490 hc         1 5XY       0.029700
     44 H11          8.6400    -1.9510    -4.9780 hc         1 5XY       0.029700
     45 H12          6.6820    -2.9530    -3.4180 hn         1 5XY       0.171500
     46 H13          1.4820    -2.0220    -0.7200 hn         1 5XY       0.302800
     47 H14          1.9160     0.8930    -0.4870 h1         1 5XY       0.070700
     48 H15         -0.5810     1.0100     1.8340 h1         1 5XY       0.027200
     49 H16         -1.2770    -0.6210     1.6450 h1         1 5XY       0.027200
     50 H17         -0.8140    -0.2020     7.6180 hn         1 5XY       0.174500
     51 H18          1.8880     5.1370    11.2430 ha         1 5XY       0.102000
     52 H19          4.1660     1.6460    12.1700 ha         1 5XY       0.102000
     53 H20          9.1660     0.2430    -5.8790 ha         1 5XY       0.101500
     54 H21         10.8160     2.0720    -5.9800 ha         1 5XY       0.101500
     55 H22         12.4950     2.3180    -4.1910 ha         1 5XY       0.101000
     56 H23         12.5190     0.7390    -2.2970 ha         1 5XY       0.101500
     57 H24         10.8660    -1.0890    -2.1950 ha         1 5XY       0.101500
     58 N18          0.0160     0.2650     7.3090 ns         1 5XY      -0.081400
     59 N03          6.6390    -2.0180    -3.0620 ns         1 5XY      -0.079400
     60 C19          0.7540     0.9780     8.1830 c          1 5XY       0.531100
@<TRIPOS>BOND
     1     1    17 1   
     2     1    18 1   
     3     1    34 1   
     4     1    35 1   
     5     2     3 1   
     6     2    18 1   
     7     2    19 1   
     8     3    17 1   
     9     3    36 1   
    10     3    37 1   
    11     4    21 2   
    12     4    25 1   
    13     4    58 1   
    14     5     6 1   
    15     5    38 1   
    16     5    39 1   
    17     5    60 1   
    18     6     7 ar  
    19     6     9 ar  
    20     7    22 ar  
    21     7    40 1   
    22     8    22 ar  
    23     8    23 ar  
    24     8    41 1   
    25     9    23 ar  
    26     9    42 1   
    27    10    11 1   
    28    10    28 1   
    29    10    43 1   
    30    10    44 1   
    31    11    27 2   
    32    11    59 1   
    33    12    13 2   
    34    12    26 1   
    35    12    59 1   
    36    13    14 1   
    37    14    15 2   
    38    15    16 1   
    39    15    26 1   
    40    16    17 1   
    41    16    46 1   
    42    17    47 1   
    43    18    48 1   
    44    18    49 1   
    45    19    20 2   
    46    19    25 1   
    47    20    21 1   
    48    22    51 1   
    49    23    52 1   
    50    24    60 2   
    51    28    29 ar  
    52    28    33 ar  
    53    29    30 ar  
    54    29    53 1   
    55    30    31 ar  
    56    30    54 1   
    57    31    32 ar  
    58    31    55 1   
    59    32    33 ar  
    60    32    56 1   
    61    33    57 1   
    62    45    59 1   
    63    50    58 1   
    64    58    60 1   
@<TRIPOS>SUBSTRUCTURE
     1 5XY         1 TEMP              0 ****  ****    0 ROOT
