@<TRIPOS>MOLECULE
molecule
   60    64     1     0     0
SMALL
bcc


@<TRIPOS>ATOM
      1 C10          0.0000     0.0000     0.0000 c3         1 5XY      -0.098400
      2 N12          0.7710    -0.5830     2.1940 nh         1 5XY      -0.657300
      3 C13          1.9440     0.0000     1.4920 c3         1 5XY       0.134800
      4 C17          0.4120     0.1730     5.9760 cc         1 5XY       0.557300
      5 C20          0.3260     1.0770     9.6250 c3         1 5XY      -0.103100
      6 C21          1.3140     1.9230    10.3850 ca         1 5XY      -0.075300
      7 C22          1.1270     3.2900    10.4760 ca         1 5XY      -0.107000
      8 C24          3.1270     3.4760    11.7800 ca         1 5XY      -0.120000
      9 C26          2.4050     1.3320    10.9950 ca         1 5XY      -0.107000
     10 C01          8.9110    -1.6530    -3.9720 c3         1 5XY      -0.103100
     11 C02          7.6810    -1.1820    -3.2390 c          1 5XY       0.641100
     12 C04          5.5030    -1.5820    -2.3840 cc         1 5XY       0.548300
     13 N05          5.3360    -0.3990    -1.8830 nd         1 5XY      -0.298000
     14 N06          4.1300    -0.1840    -1.2530 nd         1 5XY      -0.408000
     15 C07          3.3160    -1.1930    -1.2410 cc         1 5XY       0.712300
     16 N08          2.0520    -1.2010    -0.6640 nu         1 5XY      -0.890900
     17 C09          1.5430     0.0000     0.0000 c3         1 5XY       0.243500
     18 C11         -0.4010    -0.0020     1.4920 c3         1 5XY       0.143800
     19 C14          0.7720    -0.2310     3.5370 cc         1 5XY       0.615300
     20 N15          1.6590     0.5130     4.1190 nd         1 5XY      -0.358000
     21 N16          1.4620     0.7320     5.4650 nd         1 5XY      -0.318000
     22 C23          2.0340     4.0660    11.1730 ca         1 5XY      -0.124000
     23 C25          3.3110     2.1090    11.6930 ca         1 5XY      -0.124000
     24 O27          1.7620     1.5380     7.8100 o          1 5XY      -0.504100
     25 S28         -0.4420    -0.7150     4.7180 ss         1 5XY      -0.375800
     26 S29          4.0640    -2.5490    -2.0790 ss         1 5XY      -0.416800
     27 O30          7.6290    -0.0480    -2.8090 o          1 5XY      -0.509100
     28 C31          9.9180    -0.5350    -4.0330 ca         1 5XY      -0.074300
     29 C32          9.9030     0.3510    -5.0930 ca         1 5XY      -0.107000
     30 C33         10.8280     1.3770    -5.1490 ca         1 5XY      -0.125000
     31 C34         11.7690     1.5160    -4.1460 ca         1 5XY      -0.121000
     32 C35         11.7830     0.6290    -3.0850 ca         1 5XY      -0.125000
     33 C36         10.8550    -0.3940    -3.0260 ca         1 5XY      -0.107000
     34 H1          -0.3750    -0.8900    -0.4900 hc         1 5XY       0.062200
     35 H2          -0.3750     0.8920    -0.4880 hc         1 5XY       0.062200
     36 H3           2.1220     1.0120     1.8330 h1         1 5XY       0.085200
     37 H4           2.8200    -0.6180     1.6460 h1         1 5XY       0.085200
     38 H5          -0.6560     1.5310     9.6800 hc         1 5XY       0.066700
     39 H6           0.2900     0.0860    10.0600 hc         1 5XY       0.066700
     40 H7           0.2700     3.7520    10.0010 ha         1 5XY       0.128500
     41 H8           3.8380     4.0850    12.3260 ha         1 5XY       0.130000
     42 H9           2.5490     0.2600    10.9280 ha         1 5XY       0.128500
     43 H10          9.3410    -2.4990    -3.4490 hc         1 5XY       0.066200
     44 H11          8.6400    -1.9510    -4.9780 hc         1 5XY       0.066200
     45 H12          6.6820    -2.9530    -3.4180 hn         1 5XY       0.333500
     46 H13          1.4820    -2.0220    -0.7200 hn         1 5XY       0.456800
     47 H14          1.9160     0.8930    -0.4870 h1         1 5XY       0.096700
     48 H15         -0.5810     1.0100     1.8340 h1         1 5XY       0.057700
     49 H16         -1.2770    -0.6210     1.6450 h1         1 5XY       0.057700
     50 H17         -0.8140    -0.2020     7.6180 hn         1 5XY       0.334500
     51 H18          1.8880     5.1370    11.2430 ha         1 5XY       0.131000
     52 H19          4.1660     1.6460    12.1700 ha         1 5XY       0.131000
     53 H20          9.1660     0.2430    -5.8790 ha         1 5XY       0.128500
     54 H21         10.8160     2.0720    -5.9800 ha         1 5XY       0.130500
     55 H22         12.4950     2.3180    -4.1910 ha         1 5XY       0.129000
     56 H23         12.5190     0.7390    -2.2970 ha         1 5XY       0.130500
     57 H24         10.8660    -1.0890    -2.1950 ha         1 5XY       0.128500
     58 N18          0.0160     0.2650     7.3090 ns         1 5XY      -0.537400
     59 N03          6.6390    -2.0180    -3.0620 ns         1 5XY      -0.536400
     60 C19          0.7540     0.9780     8.1830 c          1 5XY       0.642100
@<TRIPOS>BOND
     1    10    28 1   
     2    10    11 1   
     3    26    12 1   
     4    26    15 1   
     5    59    11 1   
     6    59    12 1   
     7    29    28 ar  
     8    29    30 ar  
     9    28    33 ar  
    10    11    27 2   
    11    30    31 ar  
    12    12    13 2   
    13    33    32 ar  
    14    31    32 ar  
    15    15    16 1   
    16    15    14 2   
    17    16    17 1   
    18    13    14 1   
    19     1    17 1   
    20     1    18 1   
    21    17     3 1   
    22    20    21 1   
    23    20    19 2   
    24     2     3 1   
    25     2    18 1   
    26     2    19 1   
    27    21     4 2   
    28    19    25 1   
    29    24    60 2   
    30     4    25 1   
    31     4    58 1   
    32    60    58 1   
    33    60     5 1   
    34    23     9 ar  
    35    23     8 ar  
    36     9     6 ar  
    37     8    22 ar  
    38     6     5 1   
    39     6     7 ar  
    40    22     7 ar  
    41     1    34 1   
    42     1    35 1   
    43     3    36 1   
    44     3    37 1   
    45     5    38 1   
    46     5    39 1   
    47     7    40 1   
    48     8    41 1   
    49     9    42 1   
    50    10    43 1   
    51    10    44 1   
    52    59    45 1   
    53    16    46 1   
    54    17    47 1   
    55    18    48 1   
    56    18    49 1   
    57    58    50 1   
    58    22    51 1   
    59    23    52 1   
    60    29    53 1   
    61    30    54 1   
    62    31    55 1   
    63    32    56 1   
    64    33    57 1   
@<TRIPOS>SUBSTRUCTURE
     1 5XY         1 TEMP              0 ****  ****    0 ROOT
