@<TRIPOS>MOLECULE
5XZ
   59    63     1     0     0
SMALL
bcc


@<TRIPOS>ATOM
      1 C10          0.0000     0.0000     0.0000 c3         1 5XZ      -0.035400
      2 C17         -3.7750    -3.2140     3.4960 cc         1 5XZ       0.368300
      3 C20         -5.5960    -6.0780     5.1100 c3         1 5XZ      -0.031100
      4 C21         -5.1330    -7.5070     5.2370 ca         1 5XZ      -0.078300
      5 C22         -5.4340    -8.4220     4.2450 ca         1 5XZ      -0.082000
      6 C24         -4.2840   -10.1270     5.4700 ca         1 5XZ      -0.096000
      7 C26         -4.4030    -7.9010     6.3430 ca         1 5XZ      -0.082000
      8 C01          8.5910    -3.6200     2.2260 c3         1 5XZ      -0.031100
      9 C02          7.1490    -3.1950     2.3300 c          1 5XZ       0.529100
     10 N03          6.7110    -2.1250     1.6380 ns         1 5XZ      -0.078400
     11 C04          5.3780    -1.7330     1.7350 cc         1 5XZ       0.414300
     12 N05          4.4750    -2.3130     2.4600 nd         1 5XZ      -0.281000
     13 N06          3.2170    -1.7550     2.4060 nd         1 5XZ      -0.335000
     14 C07          3.0970    -0.7190     1.6350 cc         1 5XZ       0.557300
     15 N08          1.9260     0.0000     1.4290 nh         1 5XZ      -0.428300
     16 C09          1.5480     0.0000     0.0000 c3         1 5XZ       0.142800
     17 C11         -0.3140    -0.9150     1.2120 c3         1 5XZ       0.156100
     18 C12          0.8120    -0.5700     2.2090 c3         1 5XZ       0.086800
     19 O13         -1.5930    -0.6000     1.7660 os         1 5XZ      -0.372100
     20 C14         -2.2760    -1.6120     2.3560 cc         1 5XZ       0.653700
     21 N15         -1.8740    -2.8430     2.4690 nd         1 5XZ      -0.356000
     22 N16         -2.6380    -3.6600     3.0510 nd         1 5XZ      -0.237000
     23 C19         -4.5460    -5.2710     4.3900 c          1 5XZ       0.530100
     24 C23         -5.0100    -9.7320     4.3620 ca         1 5XZ      -0.096500
     25 C25         -3.9780    -9.2110     6.4590 ca         1 5XZ      -0.096500
     26 O27         -3.5230    -5.8040     4.0170 o          1 5XZ      -0.542100
     27 S28         -3.8670    -1.4930     3.1120 ss         1 5XZ      -0.393800
     28 S29          4.6550    -0.3630     0.8970 ss         1 5XZ      -0.436800
     29 O30          6.3840    -3.8160     3.0390 o          1 5XZ      -0.538100
     30 C31          8.8220    -4.8330     3.0910 ca         1 5XZ      -0.078300
     31 C32          8.6510    -6.0990     2.5660 ca         1 5XZ      -0.082500
     32 C33          8.8610    -7.2120     3.3590 ca         1 5XZ      -0.096500
     33 C34          9.2430    -7.0580     4.6790 ca         1 5XZ      -0.096000
     34 C35          9.4150    -5.7910     5.2040 ca         1 5XZ      -0.096500
     35 C36          9.2100    -4.6780     4.4090 ca         1 5XZ      -0.082500
     36 H1          -0.3850    -0.4290    -0.9170 hc         1 5XZ       0.036200
     37 H2          -0.3850     1.0000     0.1610 hc         1 5XZ       0.036200
     38 H3          -5.7580    -5.6610     6.0970 hc         1 5XZ       0.030200
     39 H4          -6.5220    -6.0470     4.5490 hc         1 5XZ       0.030200
     40 H5          -6.0030    -8.1120     3.3770 ha         1 5XZ       0.101500
     41 H6          -3.9510   -11.1540     5.5610 ha         1 5XZ       0.101000
     42 H7          -4.1640    -7.1830     7.1180 ha         1 5XZ       0.101500
     43 H8           8.8220    -3.8620     1.1960 hc         1 5XZ       0.030200
     44 H9           9.2300    -2.8120     2.5600 hc         1 5XZ       0.030200
     45 H10          7.3480    -1.5970     1.0760 hn         1 5XZ       0.173500
     46 H11          1.9240     0.8910    -0.4880 h1         1 5XZ       0.028700
     47 H12          1.9240    -0.8910    -0.4880 h1         1 5XZ       0.028700
     48 H13         -0.2610    -1.9580     0.9250 h1         1 5XZ       0.057700
     49 H14          1.1400    -1.4680     2.7170 h1         1 5XZ       0.062200
     50 H15          0.4560     0.1580     2.9270 h1         1 5XZ       0.062200
     51 H16         -5.5910    -3.5190     4.4660 hn         1 5XZ       0.172500
     52 H17         -5.2470   -10.4490     3.5860 ha         1 5XZ       0.102000
     53 H18         -3.4080    -9.5210     7.3260 ha         1 5XZ       0.102000
     54 H19          8.3520    -6.2210     1.5320 ha         1 5XZ       0.102000
     55 H20          8.7270    -8.2050     2.9470 ha         1 5XZ       0.102000
     56 H21          9.4060    -7.9290     5.3010 ha         1 5XZ       0.101000
     57 H22          9.7170    -5.6690     6.2370 ha         1 5XZ       0.102000
     58 H23          9.3440    -3.6860     4.8220 ha         1 5XZ       0.102000
     59 N18         -4.7450    -3.9580     4.1610 ns         1 5XZ      -0.071400
@<TRIPOS>BOND
     1     1    16 1   
     2     1    17 1   
     3     1    36 1   
     4     1    37 1   
     5     2    22 2   
     6     2    27 1   
     7     2    59 1   
     8     3     4 1   
     9     3    23 1   
    10     3    38 1   
    11     3    39 1   
    12     4     5 ar  
    13     4     7 ar  
    14     5    24 ar  
    15     5    40 1   
    16     6    24 ar  
    17     6    25 ar  
    18     6    41 1   
    19     7    25 ar  
    20     7    42 1   
    21     8     9 1   
    22     8    30 1   
    23     8    43 1   
    24     8    44 1   
    25     9    10 1   
    26     9    29 2   
    27    10    11 1   
    28    10    45 1   
    29    11    12 2   
    30    11    28 1   
    31    12    13 1   
    32    13    14 2   
    33    14    15 1   
    34    14    28 1   
    35    15    16 1   
    36    15    18 1   
    37    16    46 1   
    38    16    47 1   
    39    17    18 1   
    40    17    19 1   
    41    17    48 1   
    42    18    49 1   
    43    18    50 1   
    44    19    20 1   
    45    20    21 2   
    46    20    27 1   
    47    21    22 1   
    48    23    26 2   
    49    23    59 1   
    50    24    52 1   
    51    25    53 1   
    52    30    31 ar  
    53    30    35 ar  
    54    31    32 ar  
    55    31    54 1   
    56    32    33 ar  
    57    32    55 1   
    58    33    34 ar  
    59    33    56 1   
    60    34    35 ar  
    61    34    57 1   
    62    35    58 1   
    63    51    59 1   
@<TRIPOS>SUBSTRUCTURE
     1 5XZ         1 TEMP              0 ****  ****    0 ROOT
