@<TRIPOS>MOLECULE
molecule
   40    41     1     0     0
SMALL
bcc


@<TRIPOS>ATOM
      1 C13          0.0000     0.0000     0.0000 ca         1 5Y0       0.206600
      2 C14          1.3880     0.0000     0.0000 ca         1 5Y0      -0.183000
      3 C15          2.0770     0.0000     1.1980 ca         1 5Y0      -0.066000
      4 C16          1.3860     0.0000     2.3960 ca         1 5Y0       0.024900
      5 C17          0.0020     0.0010     2.4000 ca         1 5Y0      -0.092000
      6 C18         -0.6940     0.0070     1.2060 ca         1 5Y0       0.071900
      7 N9          -0.7010    -0.0000    -1.2120 nu         1 5Y0      -0.681000
      8 C5          -0.0130     0.1310    -2.4130 ca         1 5Y0       0.189600
      9 C6           0.5770    -0.9920    -3.0140 ca         1 5Y0      -0.138600
     10 C1           1.2660    -0.8490    -4.2220 ca         1 5Y0      -0.098000
     11 C2           1.3630     0.3900    -4.8150 ca         1 5Y0      -0.151000
     12 C3           0.7790     1.5000    -4.2200 ca         1 5Y0       0.123900
     13 C4           0.0900     1.3740    -3.0260 ca         1 5Y0       0.086900
     14 C10          0.4720    -2.3150    -2.3750 c          1 5Y0       0.684700
     15 N12          1.1350    -3.3690    -2.8940 ns         1 5Y0      -0.470400
     16 O11         -0.2140    -2.4580    -1.3810 o          1 5Y0      -0.553100
     17 O21          1.0330    -4.6410    -2.2790 os         1 5Y0      -0.169900
     18 C22          1.7860    -5.6630    -2.9340 c3         1 5Y0       0.090400
     19 C24          2.5060    -8.0530    -2.8120 c3         1 5Y0       0.133400
     20 O26          0.2400    -7.4030    -2.2840 oh         1 5Y0      -0.588800
     21 O23          2.4230    -9.2560    -2.0460 oh         1 5Y0      -0.600800
     22 C25          1.6030    -6.9870    -2.1880 c3         1 5Y0       0.160100
     23 I20          2.4370     0.0000     4.2090 i          1 5Y0      -0.169900
     24 F19         -2.0450     0.0080     1.2100 f          1 5Y0      -0.139900
     25 F7          -0.4790     2.4570    -2.4570 f          1 5Y0      -0.108900
     26 F8           0.8820     2.7120    -4.8110 f          1 5Y0      -0.117900
     27 H17         -0.5360     0.0040     3.3400 ha         1 5Y0       0.156000
     28 H14          1.9300    -0.0030    -0.9380 ha         1 5Y0       0.139000
     29 H9          -1.7000    -0.0610    -1.2120 hn         1 5Y0       0.475800
     30 H15          3.1610    -0.0000     1.1990 ha         1 5Y0       0.142000
     31 H242         3.5340    -7.7100    -2.8350 h1         1 5Y0       0.029700
     32 H25          1.8680    -6.8550    -1.1460 h1         1 5Y0       0.060700
     33 H23          3.1070    -9.8470    -2.3130 ho         1 5Y0       0.407000
     34 H1           1.7240    -1.7110    -4.6910 ha         1 5Y0       0.138000
     35 H2           1.8990     0.5000    -5.7500 ha         1 5Y0       0.159000
     36 H12          1.7220    -3.2450    -3.6950 hn         1 5Y0       0.319500
     37 H221         1.4380    -5.7720    -3.9540 h1         1 5Y0       0.041200
     38 H222         2.8360    -5.3930    -2.9370 h1         1 5Y0       0.041200
     39 H26         -0.1330    -7.4610    -1.4200 ho         1 5Y0       0.419000
     40 H241         2.1850    -8.2490    -3.8270 h1         1 5Y0       0.029700
@<TRIPOS>BOND
     1    23     4 1
     2     5     6 ar
     3     5     4 ar
     4     6     1 ar
     5     6    24 1
     6     1     2 ar
     7     1     7 1
     8     2     3 ar
     9     3     4 ar
    10    19    22 1
    11    19    21 1
    12     7     8 1
    13     8     9 ar
    14     8    13 ar
    15     9    10 ar
    16     9    14 1
    17    10    11 ar
    18    11    12 ar
    19    12    13 ar
    20    12    26 1
    21    13    25 1
    22    14    16 2
    23    14    15 1
    24    15    17 1
    25    17    18 1
    26    18    22 1
    27    22    20 1
    28     5    27 1
    29     2    28 1
    30     7    29 1
    31     3    30 1
    32    19    40 1
    33    19    31 1
    34    22    32 1
    35    21    33 1
    36    10    34 1
    37    11    35 1
    38    15    36 1
    39    18    37 1
    40    18    38 1
    41    20    39 1
@<TRIPOS>SUBSTRUCTURE
     1 5Y0         1 TEMP              0 ****  ****    0 ROOT
