@<TRIPOS>MOLECULE
5Y0
   40    41     1     0     0
SMALL
bcc


@<TRIPOS>ATOM
      1 C13          0.0000     0.0000     0.0000 ca         1 5Y0       0.059600
      2 C14          1.3880     0.0000     0.0000 ca         1 5Y0      -0.165000
      3 C15          2.0770     0.0000     1.1980 ca         1 5Y0      -0.046000
      4 C16          1.3860     0.0000     2.3960 ca         1 5Y0       0.170900
      5 C17          0.0020     0.0010     2.4000 ca         1 5Y0      -0.068000
      6 C18         -0.6940     0.0070     1.2060 ca         1 5Y0       0.045900
      7 N9          -0.7010    -0.0000    -1.2120 nu         1 5Y0      -0.232000
      8 C5          -0.0130     0.1310    -2.4130 ca         1 5Y0       0.058600
      9 C6           0.5770    -0.9920    -3.0140 ca         1 5Y0      -0.143600
     10 C1           1.2660    -0.8490    -4.2220 ca         1 5Y0      -0.072000
     11 C2           1.3630     0.3900    -4.8150 ca         1 5Y0      -0.111000
     12 C3           0.7790     1.5000    -4.2200 ca         1 5Y0       0.105900
     13 C4           0.0900     1.3740    -3.0260 ca         1 5Y0       0.072900
     14 C10          0.4720    -2.3150    -2.3750 c          1 5Y0       0.592700
     15 N12          1.1350    -3.3690    -2.8940 ns         1 5Y0      -0.065400
     16 O11         -0.2140    -2.4580    -1.3810 o          1 5Y0      -0.609100
     17 O21          1.0330    -4.6410    -2.2790 os         1 5Y0      -0.255900
     18 C22          1.7860    -5.6630    -2.9340 c3         1 5Y0       0.178400
     19 C24          2.5060    -8.0530    -2.8120 c3         1 5Y0       0.211400
     20 O26          0.2400    -7.4030    -2.2840 oh         1 5Y0      -0.572800
     21 O23          2.4230    -9.2560    -2.0460 oh         1 5Y0      -0.583800
     22 C25          1.6030    -6.9870    -2.1880 c3         1 5Y0       0.187100
     23 I20          2.4370     0.0000     4.2090 i          1 5Y0      -0.298900
     24 F19         -2.0450     0.0080     1.2100 f          1 5Y0      -0.124900
     25 F7          -0.4790     2.4570    -2.4570 f          1 5Y0      -0.103900
     26 F8           0.8820     2.7120    -4.8110 f          1 5Y0      -0.110900
     27 H17         -0.5360     0.0040     3.3400 ha         1 5Y0       0.129000
     28 H14          1.9300    -0.0030    -0.9380 ha         1 5Y0       0.116000
     29 H9          -1.7000    -0.0610    -1.2120 hn         1 5Y0       0.311800
     30 H15          3.1610    -0.0000     1.1990 ha         1 5Y0       0.114000
     31 H242         3.5340    -7.7100    -2.8350 h1         1 5Y0      -0.008300
     32 H25          1.8680    -6.8550    -1.1460 h1         1 5Y0       0.020700
     33 H23          3.1070    -9.8470    -2.3130 ho         1 5Y0       0.393000
     34 H1           1.7240    -1.7110    -4.6910 ha         1 5Y0       0.110000
     35 H2           1.8990     0.5000    -5.7500 ha         1 5Y0       0.127000
     36 H12          1.7220    -3.2450    -3.6950 hn         1 5Y0       0.165500
     37 H221         1.4380    -5.7720    -3.9540 h1         1 5Y0       0.002700
     38 H222         2.8360    -5.3930    -2.9370 h1         1 5Y0       0.002700
     39 H26         -0.1330    -7.4610    -1.4200 ho         1 5Y0       0.404000
     40 H241         2.1850    -8.2490    -3.8270 h1         1 5Y0      -0.008300
@<TRIPOS>BOND
     1     1     2 ar  
     2     1     6 ar  
     3     1     7 1   
     4     2     3 ar  
     5     2    28 1   
     6     3     4 ar  
     7     3    30 1   
     8     4     5 ar  
     9     4    23 1   
    10     5     6 ar  
    11     5    27 1   
    12     6    24 1   
    13     7     8 1   
    14     7    29 1   
    15     8     9 ar  
    16     8    13 ar  
    17     9    10 ar  
    18     9    14 1   
    19    10    11 ar  
    20    10    34 1   
    21    11    12 ar  
    22    11    35 1   
    23    12    13 ar  
    24    12    26 1   
    25    13    25 1   
    26    14    15 1   
    27    14    16 2   
    28    15    17 1   
    29    15    36 1   
    30    17    18 1   
    31    18    22 1   
    32    18    37 1   
    33    18    38 1   
    34    19    21 1   
    35    19    22 1   
    36    19    31 1   
    37    19    40 1   
    38    20    22 1   
    39    20    39 1   
    40    21    33 1   
    41    22    32 1   
@<TRIPOS>SUBSTRUCTURE
     1 5Y0         1 TEMP              0 ****  ****    0 ROOT
