@<TRIPOS>MOLECULE
molecule
   46    49     1     0     0
SMALL
bcc


@<TRIPOS>ATOM
      1 C1           0.0000     0.0000     0.0000 ca         1 5Y2      -0.134300
      2 C2           1.3810     0.0000     0.0000 ca         1 5Y2      -0.088000
      3 C3           2.0760     0.0000     1.1950 ca         1 5Y2      -0.128000
      4 N6           5.9710    -1.2460     6.1300 nu         1 5Y2      -0.728600
      5 C7          -2.7700     0.5520     2.2310 c          1 5Y2       0.658100
      6 C8          -4.2730     0.4540     2.2840 c3         1 5Y2      -0.173100
      7 C9           3.2760    -0.7020     3.7190 cc         1 5Y2       0.759200
      8 C10          4.0360    -0.6150     4.8940 cc         1 5Y2      -0.434300
      9 C11          5.2050    -1.3140     4.9860 cd         1 5Y2       0.343300
     10 C12          4.8370    -2.1400     2.7970 cd         1 5Y2       0.515500
     11 C13          5.4970    -3.0000     1.8980 cc         1 5Y2      -0.273300
     12 C14          6.6770    -3.4300     2.5350 cc         1 5Y2       0.467500
     13 C15          5.0580    -3.3610     0.5840 cg         1 5Y2       0.263500
     14 C16          5.4760    -0.5200     7.3010 cx         1 5Y2       0.112500
     15 N5           4.7180    -3.6650    -0.4560 n1         1 5Y2      -0.399800
     16 N4           6.7330    -2.8890     3.7230 nd         1 5Y2      -0.590100
     17 N2           5.6070    -2.0830     3.9250 na         1 5Y2      -0.005800
     18 C18          6.0020    -0.9480     8.6730 cx         1 5Y2      -0.143400
     19 C17          6.4680     0.3710     8.0520 cx         1 5Y2      -0.143400
     20 N3           3.6930    -1.4600     2.7150 nd         1 5Y2      -0.784000
     21 C4           1.3850    -0.0000     2.4010 ca         1 5Y2       0.146600
     22 C5          -0.0030    -0.0000     2.4040 ca         1 5Y2      -0.174000
     23 C6          -0.6970     0.0000     1.2030 ca         1 5Y2       0.075600
     24 C           -0.7530     0.0070    -1.3050 c3         1 5Y2      -0.042800
     25 N           -2.0960     0.0010     1.2010 ns         1 5Y2      -0.474100
     26 O           -2.1680     1.1260     3.1120 o          1 5Y2      -0.600100
     27 H1           1.9230    -0.0000    -0.9380 ha         1 5Y2       0.140000
     28 H2           3.1590     0.0000     1.1920 ha         1 5Y2       0.159000
     29 H3           6.9700    -1.2260     6.0620 hn         1 5Y2       0.447800
     30 H4          -4.6980     0.9630     1.4280 hc         1 5Y2       0.063700
     31 H5          -4.6320     0.9180     3.1950 hc         1 5Y2       0.063700
     32 H6          -4.5680    -0.5880     2.2690 hc         1 5Y2       0.063700
     33 H7           3.6950     0.0050     5.7150 ha         1 5Y2       0.165000
     34 H8           7.4200    -4.0980     2.1160 h4         1 5Y2       0.069800
     35 H9           4.4430    -0.6880     7.5800 h1         1 5Y2       0.128700
     36 H10          5.2620    -0.9960     9.4630 hc         1 5Y2       0.085450
     37 H11          6.8320    -1.6450     8.6590 hc         1 5Y2       0.085450
     38 H12          6.0360     1.2200     8.5680 hc         1 5Y2       0.085450
     39 H13          7.4560     0.4440     7.6130 hc         1 5Y2       0.085450
     40 H14          1.5550     0.2130     4.4290 hn         1 5Y2       0.454800
     41 H15         -0.5430    -0.0000     3.3430 ha         1 5Y2       0.162000
     42 H16         -1.3380     0.9160    -1.3800 hc         1 5Y2       0.040700
     43 H17         -1.4120    -0.8510    -1.3460 hc         1 5Y2       0.040700
     44 H18         -0.0490    -0.0380    -2.1280 hc         1 5Y2       0.040700
     45 H19         -2.5960    -0.4340     0.4520 hn         1 5Y2       0.327500
     46 N1           2.0880    -0.0000     3.6090 nu         1 5Y2      -0.733300
@<TRIPOS>BOND
     1    26     5 2   
     2    15    13 3   
     3    13    11 1   
     4     5     6 1   
     5     5    25 1   
     6    25    23 1   
     7    11    12 1   
     8    11    10 2   
     9    12    16 2   
    10    10    20 1   
    11    10    17 1   
    12    23    22 ar  
    13    23     1 ar  
    14    16    17 1   
    15    24     1 1   
    16    20     7 2   
    17    22    21 ar  
    18    17     9 1   
    19     1     2 ar  
    20     7    46 1   
    21     7     8 1   
    22    21    46 1   
    23    21     3 ar  
    24     9     8 2   
    25     9     4 1   
    26     2     3 ar  
    27     4    14 1   
    28    14    18 1   
    29    14    19 1   
    30    18    19 1   
    31     2    27 1   
    32     3    28 1   
    33     4    29 1   
    34     6    30 1   
    35     6    31 1   
    36     6    32 1   
    37     8    33 1   
    38    12    34 1   
    39    14    35 1   
    40    18    36 1   
    41    18    37 1   
    42    19    38 1   
    43    19    39 1   
    44    46    40 1   
    45    22    41 1   
    46    24    42 1   
    47    24    43 1   
    48    24    44 1   
    49    25    45 1   
@<TRIPOS>SUBSTRUCTURE
     1 5Y2         1 TEMP              0 ****  ****    0 ROOT
