@<TRIPOS>MOLECULE
5Y2
   46    49     1     0     0
SMALL
bcc


@<TRIPOS>ATOM
      1 C1           0.0000     0.0000     0.0000 ca         1 5Y2      -0.135300
      2 C2           1.3810     0.0000     0.0000 ca         1 5Y2      -0.058000
      3 C3           2.0760     0.0000     1.1950 ca         1 5Y2      -0.105000
      4 N6           5.9710    -1.2460     6.1300 nu         1 5Y2      -0.312600
      5 C7          -2.7700     0.5520     2.2310 c          1 5Y2       0.560100
      6 C8          -4.2730     0.4540     2.2840 c3         1 5Y2      -0.071100
      7 C9           3.2760    -0.7020     3.7190 cc         1 5Y2       0.553200
      8 C10          4.0360    -0.6150     4.8940 cc         1 5Y2      -0.406300
      9 C11          5.2050    -1.3140     4.9860 cd         1 5Y2       0.026300
     10 C12          4.8370    -2.1400     2.7970 cd         1 5Y2       0.304500
     11 C13          5.4970    -3.0000     1.8980 cc         1 5Y2      -0.252300
     12 C14          6.6770    -3.4300     2.5350 cc         1 5Y2       0.538500
     13 C15          5.0580    -3.3610     0.5840 cg         1 5Y2       0.268500
     14 C16          5.4760    -0.5200     7.3010 cx         1 5Y2      -0.003500
     15 N5           4.7180    -3.6650    -0.4560 n1         1 5Y2      -0.427800
     16 N4           6.7330    -2.8890     3.7230 nd         1 5Y2      -0.755100
     17 N2           5.6070    -2.0830     3.9250 na         1 5Y2       0.475200
     18 C18          6.0020    -0.9480     8.6730 cx         1 5Y2      -0.075900
     19 C17          6.4680     0.3710     8.0520 cx         1 5Y2      -0.075900
     20 N3           3.6930    -1.4600     2.7150 nd         1 5Y2      -0.669000
     21 C4           1.3850    -0.0000     2.4010 ca         1 5Y2      -0.005400
     22 C5          -0.0030    -0.0000     2.4040 ca         1 5Y2      -0.147000
     23 C6          -0.6970     0.0000     1.2030 ca         1 5Y2      -0.068400
     24 C           -0.7530     0.0070    -1.3050 c3         1 5Y2       0.067200
     25 N           -2.0960     0.0010     1.2010 ns         1 5Y2      -0.033100
     26 O           -2.1680     1.1260     3.1120 o          1 5Y2      -0.641100
     27 H1           1.9230    -0.0000    -0.9380 ha         1 5Y2       0.111000
     28 H2           3.1590     0.0000     1.1920 ha         1 5Y2       0.134000
     29 H3           6.9700    -1.2260     6.0620 hn         1 5Y2       0.295800
     30 H4          -4.6980     0.9630     1.4280 hc         1 5Y2       0.024367
     31 H5          -4.6320     0.9180     3.1950 hc         1 5Y2       0.024367
     32 H6          -4.5680    -0.5880     2.2690 hc         1 5Y2       0.024367
     33 H7           3.6950     0.0050     5.7150 ha         1 5Y2       0.151000
     34 H8           7.4200    -4.0980     2.1160 h4         1 5Y2       0.016800
     35 H9           4.4430    -0.6880     7.5800 h1         1 5Y2       0.103700
     36 H10          5.2620    -0.9960     9.4630 hc         1 5Y2       0.053450
     37 H11          6.8320    -1.6450     8.6590 hc         1 5Y2       0.053450
     38 H12          6.0360     1.2200     8.5680 hc         1 5Y2       0.053450
     39 H13          7.4560     0.4440     7.6130 hc         1 5Y2       0.053450
     40 H14          1.5550     0.2130     4.4290 hn         1 5Y2       0.285800
     41 H15         -0.5430    -0.0000     3.3430 ha         1 5Y2       0.149000
     42 H16         -1.3380     0.9160    -1.3800 hc         1 5Y2       0.007033
     43 H17         -1.4120    -0.8510    -1.3460 hc         1 5Y2       0.007033
     44 H18         -0.0490    -0.0380    -2.1280 hc         1 5Y2       0.007033
     45 H19         -2.5960    -0.4340     0.4520 hn         1 5Y2       0.172500
     46 N1           2.0880    -0.0000     3.6090 nu         1 5Y2      -0.277300
@<TRIPOS>BOND
     1     1     2 ar  
     2     1    23 ar  
     3     1    24 1   
     4     2     3 ar  
     5     2    27 1   
     6     3    21 ar  
     7     3    28 1   
     8     4     9 1   
     9     4    14 1   
    10     4    29 1   
    11     5     6 1   
    12     5    25 1   
    13     5    26 2   
    14     6    30 1   
    15     6    31 1   
    16     6    32 1   
    17     7     8 1   
    18     7    20 2   
    19     7    46 1   
    20     8     9 2   
    21     8    33 1   
    22     9    17 1   
    23    10    11 2   
    24    10    17 1   
    25    10    20 1   
    26    11    12 1   
    27    11    13 1   
    28    12    16 2   
    29    12    34 1   
    30    13    15 3   
    31    14    18 1   
    32    14    19 1   
    33    14    35 1   
    34    16    17 1   
    35    18    19 1   
    36    18    36 1   
    37    18    37 1   
    38    19    38 1   
    39    19    39 1   
    40    21    22 ar  
    41    21    46 1   
    42    22    23 ar  
    43    22    41 1   
    44    23    25 1   
    45    24    42 1   
    46    24    43 1   
    47    24    44 1   
    48    25    45 1   
    49    40    46 1   
@<TRIPOS>SUBSTRUCTURE
     1 5Y2         1 TEMP              0 ****  ****    0 ROOT
