@<TRIPOS>MOLECULE
molecule
   57    60     1     0     0
SMALL
bcc


@<TRIPOS>ATOM
      1 C1           0.0000     0.0000     0.0000 c          1 5Y3       0.654100
      2 C2           2.0480     0.1120     1.2090 ca         1 5Y3       0.116600
      3 C3           1.4160     0.6180     2.3350 ca         1 5Y3      -0.172000
      4 N6           2.9640    -0.9150     9.4710 nc         1 5Y3      -0.583100
      5 C7           3.3800    -0.2920     1.2840 ca         1 5Y3      -0.023400
      6 C8           5.1290     0.0580    -0.2720 c3         1 5Y3       0.147100
      7 C9           4.4900    -2.1820     0.3910 c3         1 5Y3       0.142800
      8 C10          4.9550    -2.8000    -0.9290 c3         1 5Y3       0.091800
      9 C11          1.8010     0.7520     5.9210 cc         1 5Y3       0.779200
     10 C12          1.2550     1.3490     7.0670 cc         1 5Y3      -0.462300
     11 C13          1.5880     0.8580     8.2970 cd         1 5Y3       0.368300
     12 C14          2.9580    -0.7580     7.2360 cd         1 5Y3       0.525500
     13 C15          3.7960    -1.8160     7.6360 cc         1 5Y3      -0.287300
     14 C16          3.7570    -1.8610     9.0440 cd         1 5Y3       0.476500
     15 C19          0.1100     3.5080    10.5780 cx         1 5Y3      -0.137400
     16 C20         -1.0720     2.6210    10.1820 cx         1 5Y3      -0.137400
     17 N7           5.1480    -3.3520     6.0840 n1         1 5Y3      -0.433800
     18 C17          4.5470    -2.6820     6.7760 cg         1 5Y3       0.283500
     19 N4           2.4490    -0.2080     8.3790 na         1 5Y3      -0.015800
     20 N8           1.0670     1.4230     9.4400 nu         1 5Y3      -0.749600
     21 C18          0.2090     2.6080     9.3450 cx         1 5Y3       0.150500
     22 N5           2.6290    -0.2750     6.0380 nd         1 5Y3      -0.810000
     23 C4           2.1120     0.7270     3.5300 ca         1 5Y3       0.188600
     24 C5           3.4410     0.3290     3.6000 ca         1 5Y3      -0.125000
     25 C6           4.0710    -0.1810     2.4820 ca         1 5Y3      -0.125000
     26 N1           4.0210    -0.8100     0.1500 nh         1 5Y3      -0.618000
     27 N2           5.4230    -4.1720    -0.6890 nz         1 5Y3      -0.811600
     28 N            1.3470     0.0000     0.0000 ns         1 5Y3      -0.470100
     29 O           -0.6070     0.0000     1.0500 o          1 5Y3      -0.585100
     30 C           -0.7530     0.0060    -1.3050 c3         1 5Y3      -0.169100
     31 H1           0.3940     0.9700     2.2680 ha         1 5Y3       0.193000
     32 H2           5.5290     0.5770     0.5910 h1         1 5Y3       0.046700
     33 H3           4.7670     0.7810    -0.9920 h1         1 5Y3       0.046700
     34 H4           5.9080    -0.5440    -0.7240 h1         1 5Y3       0.046700
     35 H5           5.3530    -1.8670     0.9660 h1         1 5Y3       0.067700
     36 H6           3.9280    -2.9160     0.9560 h1         1 5Y3       0.067700
     37 H7           5.9410    -2.4260    -1.1760 hx         1 5Y3       0.112700
     38 H8           4.2600    -2.5350    -1.7170 hx         1 5Y3       0.112700
     39 H9           0.6010     2.2120     7.0320 ha         1 5Y3       0.165000
     40 H10          4.2970    -2.5670     9.6620 h4         1 5Y3       0.074800
     41 H11          0.6710     3.1780    11.4440 hc         1 5Y3       0.087950
     42 H12         -0.0110     4.5650    10.3770 hc         1 5Y3       0.087950
     43 H13         -1.2330     1.7500    10.8050 hc         1 5Y3       0.087950
     44 H14         -1.9150     3.1370     9.7380 hc         1 5Y3       0.087950
     45 H15          1.1820     0.9650    10.3230 hn         1 5Y3       0.474800
     46 H16          0.1470     3.1150     8.3900 h1         1 5Y3       0.107700
     47 H17          0.8790     2.0380     4.5800 hn         1 5Y3       0.467800
     48 H18          3.9970     0.4600     4.5200 ha         1 5Y3       0.171000
     49 H19          5.1190    -0.4530     2.5300 ha         1 5Y3       0.130000
     50 H20          4.6420    -4.7580    -0.4700 hn         1 5Y3       0.457800
     51 H21          6.0670    -4.1750     0.0780 hn         1 5Y3       0.457800
     52 H23          1.8480    -0.0450    -0.8660 hn         1 5Y3       0.332500
     53 H24         -1.7660    -0.3420    -1.1400 hc         1 5Y3       0.067700
     54 H25         -0.7780     1.0140    -1.7030 hc         1 5Y3       0.067700
     55 H26         -0.2570    -0.6480    -2.0120 hc         1 5Y3       0.067700
     56 N3           1.4730     1.2370     4.6680 nu         1 5Y3      -0.753300
     57 H231         5.7730    -4.5600    -1.5420 hn         1 5Y3       0.457800
@<TRIPOS>BOND
     1    15    16 1   
     2    15    21 1   
     3    16    21 1   
     4    21    20 1   
     5    20    11 1   
     6    24    25 ar  
     7    24    23 ar  
     8    10    11 2   
     9    10     9 1   
    10    56    23 1   
    11    56     9 1   
    12    25     5 ar  
    13    11    19 1   
    14    23     3 ar  
    15     9    22 2   
    16     7     8 1   
    17     7    26 1   
    18     8    27 1   
    19     5    26 1   
    20     5     2 ar  
    21    19    12 1   
    22    19     4 1   
    23    26     6 1   
    24     3     2 ar  
    25    22    12 1   
    26     2    28 1   
    27    12    13 2   
    28     4    14 2   
    29    28     1 1   
    30    14    13 1   
    31    13    18 1   
    32    30     1 1   
    33     1    29 2   
    34    18    17 3   
    35     3    31 1   
    36     6    32 1   
    37     6    33 1   
    38     6    34 1   
    39     7    35 1   
    40     7    36 1   
    41     8    37 1   
    42     8    38 1   
    43    10    39 1   
    44    14    40 1   
    45    15    41 1   
    46    15    42 1   
    47    16    43 1   
    48    16    44 1   
    49    20    45 1   
    50    21    46 1   
    51    56    47 1   
    52    24    48 1   
    53    25    49 1   
    54    27    50 1   
    55    27    51 1   
    56    28    52 1   
    57    30    53 1   
    58    30    54 1   
    59    30    55 1   
    60    57    27 1   
@<TRIPOS>SUBSTRUCTURE
     1 5Y3         1 TEMP              0 ****  ****    0 ROOT
