@<TRIPOS>MOLECULE
5Y3
   57    60     1     0     0
SMALL
bcc


@<TRIPOS>ATOM
      1 C1           0.0000     0.0000     0.0000 c          1 5Y3       0.558100
      2 C2           2.0480     0.1120     1.2090 ca         1 5Y3      -0.023400
      3 C3           1.4160     0.6180     2.3350 ca         1 5Y3      -0.155000
      4 N6           2.9640    -0.9150     9.4710 nc         1 5Y3      -0.744100
      5 C7           3.3800    -0.2920     1.2840 ca         1 5Y3      -0.109400
      6 C8           5.1290     0.0580    -0.2720 c3         1 5Y3       0.158100
      7 C9           4.4900    -2.1820     0.3910 c3         1 5Y3       0.130800
      8 C10          4.9550    -2.8000    -0.9290 c3         1 5Y3      -0.055200
      9 C11          1.8010     0.7520     5.9210 cc         1 5Y3       0.575200
     10 C12          1.2550     1.3490     7.0670 cc         1 5Y3      -0.446300
     11 C13          1.5880     0.8580     8.2970 cd         1 5Y3       0.042300
     12 C14          2.9580    -0.7580     7.2360 cc         1 5Y3       0.319500
     13 C15          3.7960    -1.8160     7.6360 cd         1 5Y3      -0.272300
     14 C16          3.7570    -1.8610     9.0440 cd         1 5Y3       0.549500
     15 C19          0.1100     3.5080    10.5780 cx         1 5Y3      -0.069900
     16 C20         -1.0720     2.6210    10.1820 cx         1 5Y3      -0.069900
     17 N7           5.1480    -3.3520     6.0840 n1         1 5Y3      -0.466800
     18 C17          4.5470    -2.6820     6.7760 ch         1 5Y3       0.296500
     19 N4           2.4490    -0.2080     8.3790 na         1 5Y3       0.459200
     20 N8           1.0670     1.4230     9.4400 nu         1 5Y3      -0.294600
     21 C18          0.2090     2.6080     9.3450 cx         1 5Y3       0.023500
     22 N5           2.6290    -0.2750     6.0380 nd         1 5Y3      -0.702000
     23 C4           2.1120     0.7270     3.5300 ca         1 5Y3       0.040600
     24 C5           3.4410     0.3290     3.6000 ca         1 5Y3      -0.102000
     25 C6           4.0710    -0.1810     2.4820 ca         1 5Y3      -0.089000
     26 N1           4.0210    -0.8100     0.1500 nh         1 5Y3      -0.380000
     27 N2           5.4230    -4.1720    -0.6890 nz         1 5Y3       0.088400
     28 N            1.3470     0.0000     0.0000 ns         1 5Y3      -0.030100
     29 O           -0.6070     0.0000     1.0500 o          1 5Y3      -0.622100
     30 C           -0.7530     0.0060    -1.3050 c3         1 5Y3      -0.066100
     31 H1           0.3940     0.9700     2.2680 ha         1 5Y3       0.176000
     32 H2           5.5290     0.5770     0.5910 h1         1 5Y3       0.015700
     33 H3           4.7670     0.7810    -0.9920 h1         1 5Y3       0.015700
     34 H4           5.9080    -0.5440    -0.7240 h1         1 5Y3       0.015700
     35 H5           5.3530    -1.8670     0.9660 h1         1 5Y3       0.040700
     36 H6           3.9280    -2.9160     0.9560 h1         1 5Y3       0.040700
     37 H7           5.9410    -2.4260    -1.1760 hx         1 5Y3       0.084200
     38 H8           4.2600    -2.5350    -1.7170 hx         1 5Y3       0.084200
     39 H9           0.6010     2.2120     7.0320 ha         1 5Y3       0.155000
     40 H10          4.2970    -2.5670     9.6620 h4         1 5Y3       0.020800
     41 H11          0.6710     3.1780    11.4440 hc         1 5Y3       0.055200
     42 H12         -0.0110     4.5650    10.3770 hc         1 5Y3       0.055200
     43 H13         -1.2330     1.7500    10.8050 hc         1 5Y3       0.055200
     44 H14         -1.9150     3.1370     9.7380 hc         1 5Y3       0.055200
     45 H15          1.1820     0.9650    10.3230 hn         1 5Y3       0.314800
     46 H16          0.1470     3.1150     8.3900 h1         1 5Y3       0.084700
     47 H17          0.8790     2.0380     4.5800 hn         1 5Y3       0.294800
     48 H18          3.9970     0.4600     4.5200 ha         1 5Y3       0.145000
     49 H19          5.1190    -0.4530     2.5300 ha         1 5Y3       0.104000
     50 H20          4.6420    -4.7580    -0.4700 hn         1 5Y3       0.224133
     51 H21          6.0670    -4.1750     0.0780 hn         1 5Y3       0.224133
     52 H23          1.8480    -0.0450    -0.8660 hn         1 5Y3       0.174500
     53 H24         -1.7660    -0.3420    -1.1400 hc         1 5Y3       0.027700
     54 H25         -0.7780     1.0140    -1.7030 hc         1 5Y3       0.027700
     55 H26         -0.2570    -0.6480    -2.0120 hc         1 5Y3       0.027700
     56 N3           1.4730     1.2370     4.6680 nu         1 5Y3      -0.283300
     57 H231         5.7730    -4.5600    -1.5420 hn         1 5Y3       0.224133
@<TRIPOS>BOND
     1     1    28 1   
     2     1    29 2   
     3     1    30 1   
     4     2     3 ar  
     5     2     5 ar  
     6     2    28 1   
     7     3    23 ar  
     8     3    31 1   
     9     4    14 2   
    10     4    19 1   
    11     5    25 ar  
    12     5    26 1   
    13     6    26 1   
    14     6    32 1   
    15     6    33 1   
    16     6    34 1   
    17     7     8 1   
    18     7    26 1   
    19     7    35 1   
    20     7    36 1   
    21     8    27 1   
    22     8    37 1   
    23     8    38 1   
    24     9    10 1   
    25     9    22 2   
    26     9    56 1   
    27    10    11 2   
    28    10    39 1   
    29    11    19 1   
    30    11    20 1   
    31    12    13 2   
    32    12    19 1   
    33    12    22 1   
    34    13    14 1   
    35    13    18 1   
    36    14    40 1   
    37    15    16 1   
    38    15    21 1   
    39    15    41 1   
    40    15    42 1   
    41    16    21 1   
    42    16    43 1   
    43    16    44 1   
    44    17    18 3   
    45    20    21 1   
    46    20    45 1   
    47    21    46 1   
    48    23    24 ar  
    49    23    56 1   
    50    24    25 ar  
    51    24    48 1   
    52    25    49 1   
    53    27    50 1   
    54    27    51 1   
    55    27    57 1   
    56    28    52 1   
    57    30    53 1   
    58    30    54 1   
    59    30    55 1   
    60    47    56 1   
@<TRIPOS>SUBSTRUCTURE
     1 5Y3         1 TEMP              0 ****  ****    0 ROOT
