@<TRIPOS>MOLECULE
molecule
   62    65     1     0     0
SMALL
bcc


@<TRIPOS>ATOM
      1 C1           0.0000     0.0000     0.0000 c          1 5Y4       0.660100
      2 C2           2.0480     0.1110     1.2080 ca         1 5Y4       0.038600
      3 C3           1.4150     0.6140     2.3340 ca         1 5Y4      -0.178000
      4 N6           2.9490    -0.9510     9.4660 nc         1 5Y4      -0.594100
      5 C7           3.3820    -0.2900     1.2810 ca         1 5Y4       0.028600
      6 C8           5.1320     0.0730    -0.2700 c3         1 5Y4       0.148100
      7 C9           4.4960    -2.1710     0.3780 c3         1 5Y4       0.159800
      8 C10          4.9640    -2.7810    -0.9450 c3         1 5Y4       0.134800
      9 C11          5.6680    -4.8520    -1.9840 c3         1 5Y4       0.115600
     10 C12          6.6430    -4.1610     0.1220 c3         1 5Y4       0.115600
     11 C13          1.7960     0.7350     5.9220 cc         1 5Y4       0.659200
     12 C14          1.2480     1.3260     7.0690 cc         1 5Y4      -0.282300
     13 C15          1.5790     0.8280     8.2980 cd         1 5Y4       0.231300
     14 C16          2.9470    -0.7850     7.2330 cd         1 5Y4       0.480500
     15 C19          4.5320    -2.7100     6.7680 cg         1 5Y4       0.253500
     16 C20          0.2000     2.5760     9.3510 cx         1 5Y4      -0.115500
     17 C21         -1.0800     2.5900    10.1890 cx         1 5Y4      -0.183900
     18 C22          0.1030     3.4740    10.5860 cx         1 5Y4      -0.183900
     19 N7           5.1110    -3.4000     6.0740 n1         1 5Y4      -0.379800
     20 C17          3.7830    -1.8470     7.6290 cc         1 5Y4      -0.218300
     21 C18          3.7400    -1.8970     9.0370 cc         1 5Y4       0.460500
     22 N4           2.4370    -0.2380     8.3770 na         1 5Y4       0.022200
     23 N8           1.0550     1.3910     9.4430 nu         1 5Y4      -0.660600
     24 N5           2.6230    -0.2950     6.0360 nd         1 5Y4      -0.738000
     25 C4           2.1110     0.7180     3.5310 ca         1 5Y4       0.083600
     26 C5           3.4380     0.3170     3.6010 ca         1 5Y4      -0.124000
     27 C6           4.0720    -0.1850     2.4800 ca         1 5Y4      -0.112000
     28 N            1.3480     0.0000     0.0000 ns         1 5Y4      -0.456100
     29 O           -0.6070     0.0000     1.0500 o          1 5Y4      -0.603100
     30 C           -0.7530     0.0070    -1.3050 c3         1 5Y4      -0.172100
     31 N1           4.0250    -0.8000     0.1450 nh         1 5Y4      -0.665000
     32 N2           5.4350    -4.1530    -0.7130 n3         1 5Y4      -0.719600
     33 H1           0.4010     0.9470     2.1510 ha         1 5Y4       0.189000
     34 H2           5.8990    -0.2540     0.4210 h1         1 5Y4       0.050367
     35 H3           4.7420     1.0450     0.0090 h1         1 5Y4       0.050367
     36 H4           5.1460    -0.0730    -1.3430 h1         1 5Y4       0.050367
     37 H5           3.9560    -2.9450     0.9110 h1         1 5Y4       0.049200
     38 H6           5.3350    -1.8750     0.9960 h1         1 5Y4       0.049200
     39 H7           5.9970    -2.4530    -0.9480 h1         1 5Y4       0.047700
     40 H8           4.4060    -2.2460    -1.7040 h1         1 5Y4       0.047700
     41 H9           5.4780    -3.9960    -2.6200 h1         1 5Y4       0.045867
     42 H10          6.4740    -5.5720    -2.0590 h1         1 5Y4       0.045867
     43 H11          4.8050    -5.5040    -2.0370 h1         1 5Y4       0.045867
     44 H12          6.9660    -3.1350     0.2520 h1         1 5Y4       0.045867
     45 H13          6.0450    -4.4860     0.9650 h1         1 5Y4       0.045867
     46 H14          7.4200    -4.8960    -0.0510 h1         1 5Y4       0.045867
     47 H15          0.2720     1.7720     6.9250 ha         1 5Y4       0.194000
     48 H16          0.7840     1.6650     9.3270 h1         1 5Y4       0.282700
     49 H17         -1.4830     1.6190    10.4500 hc         1 5Y4       0.091700
     50 H18         -1.9670     3.0180     9.7380 hc         1 5Y4       0.091700
     51 H19         -0.0820     4.5290    10.4210 hc         1 5Y4       0.091700
     52 H20          0.6820     3.0950    11.4200 hc         1 5Y4       0.091700
     53 H21          4.1260    -2.3770     9.9280 h4         1 5Y4       0.079800
     54 H22          1.7080     1.9760     9.9260 hn         1 5Y4       0.412800
     55 H23          0.4960     1.0100     4.6200 hn         1 5Y4       0.406800
     56 H24          3.6870     0.3640     4.6550 ha         1 5Y4       0.175000
     57 H25          5.1170    -0.3160     2.2250 ha         1 5Y4       0.140000
     58 H26          2.0340     0.3520    -0.6380 hn         1 5Y4       0.341500
     59 H27         -0.0050    -0.5750    -1.8300 hc         1 5Y4       0.074033
     60 H28         -0.4790     0.9300    -1.8010 hc         1 5Y4       0.074033
     61 H29         -1.5500    -0.7250    -1.2510 hc         1 5Y4       0.074033
     62 N3           1.4720     1.2260     4.6700 nu         1 5Y4      -0.636300
@<TRIPOS>BOND
     1    19    15 3
     2    15    20 1
     3    21    20 1
     4    21     4 2
     5    29     1 2
     6    20    14 2
     7    30     1 1
     8     1    28 1
     9     4    22 1
    10    14    22 1
    11    14    24 1
    12    22    13 1
    13    28     2 1
    14    24    11 2
    15    13    23 1
    16    13    12 2
    17     2     3 ar
    18     2     5 ar
    19     3    25 ar
    20    23    16 1
    21     6    31 1
    22    11    12 1
    23    11    62 1
    24     5    31 1
    25     5    27 ar
    26    31     7 1
    27    25    62 1
    28    25    26 ar
    29     9    32 1
    30    16    18 1
    31    16    17 1
    32    32    10 1
    33    32     8 1
    34    18    17 1
    35    27    26 ar
    36     8     7 1
    37     3    33 1
    38     6    34 1
    39     6    35 1
    40     6    36 1
    41     7    37 1
    42     7    38 1
    43     8    39 1
    44     8    40 1
    45     9    41 1
    46     9    42 1
    47     9    43 1
    48    10    44 1
    49    10    45 1
    50    10    46 1
    51    12    47 1
    52    16    48 1
    53    17    49 1
    54    17    50 1
    55    18    51 1
    56    18    52 1
    57    21    53 1
    58    23    54 1
    59    62    55 1
    60    26    56 1
    61    27    57 1
    62    28    58 1
    63    30    59 1
    64    30    60 1
    65    30    61 1
@<TRIPOS>SUBSTRUCTURE
     1 5Y4         1 TEMP              0 ****  ****    0 ROOT
