@<TRIPOS>MOLECULE
5Y5
   44    47     1     0     0
SMALL
bcc


@<TRIPOS>ATOM
      1 C2           0.0000     0.0000     0.0000 c3         1 5Y5       0.118500
      2 C3           1.5260     0.0000     0.0000 c3         1 5Y5       0.013900
      3 C4           2.0560     0.0000     1.4100 ca         1 5Y5      -0.077300
      4 C5           1.2830    -0.3560     2.4930 ca         1 5Y5      -0.080300
      5 C6          -0.1630    -0.7570     2.3580 c3         1 5Y5       0.040900
      6 C7          -0.6480     0.8470    -2.2180 cc         1 5Y5       0.016300
      7 C8          -0.3420     2.1310    -1.8070 cd         1 5Y5      -0.398300
      8 C17          3.9250     0.3920     2.8710 ca         1 5Y5       0.035100
      9 C16          3.1490     0.0290     3.9580 ca         1 5Y5      -0.080000
     10 C15          1.8350    -0.3430     3.7670 ca         1 5Y5      -0.093000
     11 C14         -2.6840    -0.1030    -7.7430 c3         1 5Y5      -0.041100
     12 C12         -1.8700    -0.0650    -5.4010 cc         1 5Y5       0.521300
     13 C11         -1.2630     1.7250    -4.3300 cc         1 5Y5       0.272500
     14 C1          -0.4840    -1.1330     0.9140 c3         1 5Y5      -0.034400
     15 Br1          5.7270     0.9070     3.1220 br         1 5Y5      -0.122100
     16 C18          3.3790     0.3760     1.6040 ca         1 5Y5      -0.081000
     17 N1          -0.4940    -0.2190    -1.3620 nu         1 5Y5      -0.356600
     18 C9          -0.5120     3.1850    -2.7010 cd         1 5Y5       0.469600
     19 N2          -1.1130     0.6600    -3.4880 na         1 5Y5       0.439200
     20 N5          -0.9570     2.9610    -3.9200 nc         1 5Y5      -0.595000
     21 N3          -1.5110    -0.4740    -4.2080 nd         1 5Y5      -0.742100
     22 N4          -1.7240     1.2520    -5.4820 nc         1 5Y5      -0.372300
     23 F1          -3.5300    -1.6140    -6.0910 f          1 5Y5      -0.215300
     24 F2          -1.3880    -1.8960    -6.8310 f          1 5Y5      -0.215300
     25 H2          -0.3630     0.9490     0.3760 h1         1 5Y5       0.051700
     26 H32          1.8710     0.8980    -0.4980 hc         1 5Y5       0.036200
     27 H31          1.8710    -0.8980    -0.4980 hc         1 5Y5       0.036200
     28 H61         -0.3560    -1.6100     2.9990 hc         1 5Y5       0.026700
     29 H62         -0.7920     0.0710     2.6590 hc         1 5Y5       0.026700
     30 H8          -0.1570     2.3350    -0.7590 ha         1 5Y5       0.152000
     31 H103        -0.8940     4.9160    -1.5210 hc         1 5Y5       0.021033
     32 H101         0.8170     4.6190    -1.8570 hc         1 5Y5       0.021033
     33 H102        -0.2370     5.2530    -3.1280 hc         1 5Y5       0.021033
     34 H16          3.5460     0.1220     4.9620 ha         1 5Y5       0.119000
     35 H15          1.2280    -0.6270     4.6180 ha         1 5Y5       0.111000
     36 H142        -3.0440    -0.7420    -8.5400 hc         1 5Y5       0.035700
     37 H143        -3.4390     0.6360    -7.5030 hc         1 5Y5       0.035700
     38 H141        -1.7780     0.3970    -8.0620 hc         1 5Y5       0.035700
     39 H11          0.0460    -2.0420     0.6590 hc         1 5Y5       0.030200
     40 H12         -1.5570    -1.2370     0.8070 hc         1 5Y5       0.030200
     41 H18          3.9870     0.6600     0.7540 ha         1 5Y5       0.120000
     42 HN1         -0.7240    -1.1440    -1.6680 hn         1 5Y5       0.318800
     43 C10         -0.1840     4.5920    -2.2710 c3         1 5Y5      -0.045400
     44 C13         -2.3710    -0.9530    -6.5100 c3         1 5Y5       0.393300
@<TRIPOS>BOND
     1     1     2 1   
     2     1    14 1   
     3     1    17 1   
     4     1    25 1   
     5     2     3 1   
     6     2    26 1   
     7     2    27 1   
     8     3     4 ar  
     9     3    16 ar  
    10     4     5 1   
    11     4    10 ar  
    12     5    14 1   
    13     5    28 1   
    14     5    29 1   
    15     6     7 2   
    16     6    17 1   
    17     6    19 1   
    18     7    18 1   
    19     7    30 1   
    20     8     9 ar  
    21     8    15 1   
    22     8    16 ar  
    23     9    10 ar  
    24     9    34 1   
    25    10    35 1   
    26    11    36 1   
    27    11    37 1   
    28    11    38 1   
    29    11    44 1   
    30    12    21 2   
    31    12    22 1   
    32    12    44 1   
    33    13    19 1   
    34    13    20 1   
    35    13    22 2   
    36    14    39 1   
    37    14    40 1   
    38    16    41 1   
    39    17    42 1   
    40    18    20 2   
    41    18    43 1   
    42    19    21 1   
    43    23    44 1   
    44    24    44 1   
    45    31    43 1   
    46    32    43 1   
    47    33    43 1   
@<TRIPOS>SUBSTRUCTURE
     1 5Y5         1 TEMP              0 ****  ****    0 ROOT
