@<TRIPOS>MOLECULE
5Y6
   51    55     1     0     0
SMALL
bcc


@<TRIPOS>ATOM
      1 C2           0.0000     0.0000     0.0000 c          1 5Y6       0.769600
      2 C4           1.8160     0.0000     1.3930 c3         1 5Y6      -0.014000
      3 C5           0.5190     0.0010     2.2170 c3         1 5Y6       0.134800
      4 C6           0.4450    -1.2530     3.0840 c3         1 5Y6      -0.027900
      5 C7           1.5650    -1.2120     4.1280 c3         1 5Y6       0.120300
      6 C11          2.3430     0.0000     5.9950 ca         1 5Y6       0.051600
      7 C12          3.7140    -0.0400     5.7500 ca         1 5Y6      -0.198900
      8 C16          2.8610     0.0490     8.3450 ca         1 5Y6       0.414200
      9 C17          1.9090     0.0450     7.3300 cp         1 5Y6      -0.107300
     10 C18          0.4620     0.0900     7.6530 cp         1 5Y6      -0.067000
     11 C19         -0.0780    -0.7870     8.5860 ca         1 5Y6      -0.030000
     12 C21         -2.1630    -1.6410     9.8840 c3         1 5Y6       0.085700
     13 C27         -2.2670     0.1590     8.2760 ca         1 5Y6       0.089600
     14 O1          -0.6630     0.0050    -1.0180 o          1 5Y6      -0.679500
     15 N3           1.3410     0.0000     0.0000 ns         1 5Y6      -0.251900
     16 N8           1.4290     0.0000     4.9460 nh         1 5Y6      -0.388000
     17 C9           1.5660     1.2120     4.1280 c3         1 5Y6       0.120300
     18 C10          0.4470     1.2530     3.0850 c3         1 5Y6      -0.027900
     19 Cl           4.3150    -0.0970     4.1220 cl         1 5Y6       0.005600
     20 C14          4.5890    -0.0330     6.8170 ca         1 5Y6       0.417200
     21 N15          4.1480     0.0100     8.0600 nb         1 5Y6      -0.566000
     22 C20         -1.4310    -0.7500     8.8920 ca         1 5Y6      -0.153300
     23 S22         -3.8820    -1.0350     9.7630 s6         1 5Y6       0.942900
     24 O23         -4.7270    -1.9880     9.1330 o          1 5Y6      -0.572300
     25 O24         -4.2760    -0.3490    10.9440 o          1 5Y6      -0.572300
     26 N25         -3.6260     0.1490     8.6240 nh         1 5Y6      -0.334900
     27 C26         -4.6510     1.0410     8.0790 c3         1 5Y6       0.297100
     28 C28         -1.7090     1.0480     7.3350 ca         1 5Y6      -0.142000
     29 C29         -0.3730     1.0150     7.0290 ca         1 5Y6      -0.030000
     30 O30         -0.5410     0.0010     1.2250 os         1 5Y6      -0.355900
     31 H1           2.2990    -0.9550     1.5630 h1         1 5Y6       0.046200
     32 H2           2.3000     0.9550     1.5620 h1         1 5Y6       0.046200
     33 H3          -0.5140    -1.2880     3.5860 hc         1 5Y6       0.037700
     34 H4           0.5660    -2.1300     2.4600 hc         1 5Y6       0.037700
     35 H5           2.5250    -1.2020     3.6260 h1         1 5Y6       0.027950
     36 H6           1.4940    -2.0860     4.7650 h1         1 5Y6       0.027950
     37 H7           2.5410     0.0840     9.3790 h4         1 5Y6      -0.008900
     38 H8           0.5630    -1.5090     9.0780 ha         1 5Y6       0.108000
     39 H9          -2.1100    -2.6750     9.5650 h1         1 5Y6       0.081200
     40 H10         -1.7800    -1.4770    10.8840 h1         1 5Y6       0.081200
     41 H11          1.9230    -0.0000    -0.8140 hn         1 5Y6       0.219500
     42 H12          1.4960     2.0860     4.7650 h1         1 5Y6       0.027950
     43 H13          2.5260     1.2010     3.6260 h1         1 5Y6       0.027950
     44 H14          0.5670     2.1310     2.4620 hc         1 5Y6       0.037700
     45 H15         -0.5130     1.2890     3.5870 hc         1 5Y6       0.037700
     46 H16          5.6560    -0.0650     6.6310 h4         1 5Y6      -0.008900
     47 H17         -4.3900     2.0690     8.3000 h1         1 5Y6       0.006033
     48 H18         -4.7130     0.9070     7.0060 h1         1 5Y6       0.006033
     49 H19         -5.6090     0.8080     8.5280 h1         1 5Y6       0.006033
     50 H20         -2.3480     1.7710     6.8430 ha         1 5Y6       0.114000
     51 H21          0.0450     1.7520     6.3540 ha         1 5Y6       0.112000
@<TRIPOS>BOND
     1     1    14 2   
     2     1    15 1   
     3     1    30 1   
     4     2     3 1   
     5     2    15 1   
     6     2    31 1   
     7     2    32 1   
     8     3     4 1   
     9     3    18 1   
    10     3    30 1   
    11     4     5 1   
    12     4    33 1   
    13     4    34 1   
    14     5    16 1   
    15     5    35 1   
    16     5    36 1   
    17     6     7 ar  
    18     6     9 ar  
    19     6    16 1   
    20     7    19 1   
    21     7    20 ar  
    22     8     9 ar  
    23     8    21 ar  
    24     8    37 1   
    25     9    10 1   
    26    10    11 ar  
    27    10    29 ar  
    28    11    22 ar  
    29    11    38 1   
    30    12    22 1   
    31    12    23 1   
    32    12    39 1   
    33    12    40 1   
    34    13    22 ar  
    35    13    26 1   
    36    13    28 ar  
    37    15    41 1   
    38    16    17 1   
    39    17    18 1   
    40    17    42 1   
    41    17    43 1   
    42    18    44 1   
    43    18    45 1   
    44    20    21 ar  
    45    20    46 1   
    46    23    24 2   
    47    23    25 2   
    48    23    26 1   
    49    26    27 1   
    50    27    47 1   
    51    27    48 1   
    52    27    49 1   
    53    28    29 ar  
    54    28    50 1   
    55    29    51 1   
@<TRIPOS>SUBSTRUCTURE
     1 5Y6         1 TEMP              0 ****  ****    0 ROOT
