@<TRIPOS>MOLECULE
molecule
   64    68     1     0     0
SMALL
bcc


@<TRIPOS>ATOM
      1 C1           0.0000     0.0000     0.0000 c3         1 5Y7       0.126700
      2 C3           2.0100     0.0000     1.3060 c3         1 5Y7       0.138400
      3 C4           3.5350     0.0000     1.1850 c3         1 5Y7       0.155800
      4 C6           3.6670     2.4140     1.4300 c3         1 5Y7       0.149800
      5 C7           4.8280     3.4110     1.1860 c3         1 5Y7      -0.090400
      6 C8           6.0380     2.4530     1.0320 c3         1 5Y7      -0.102400
      7 C11          7.5390    -0.0680     0.5530 c3         1 5Y7       0.152800
      8 C15          9.0850    -0.1330    -1.2260 ca         1 5Y7       0.141600
      9 C16         10.0460     0.7470    -0.7340 ca         1 5Y7      -0.138900
     10 C18         11.3700     0.5590    -1.0780 ca         1 5Y7       0.434200
     11 C21          9.5100    -1.1840    -2.0560 cp         1 5Y7      -0.129300
     12 C23          8.5250    -2.4480    -3.9670 ca         1 5Y7      -0.057000
     13 C24          7.6130    -3.3550    -4.4880 ca         1 5Y7      -0.138300
     14 O28          4.9380    -4.4490    -6.5140 o          1 5Y7      -0.614800
     15 C30          4.7620    -5.6380    -3.5410 c3         1 5Y7       0.256100
     16 C31          6.6940    -3.9810    -3.6700 ca         1 5Y7       0.156600
     17 C32          6.7110    -3.6740    -2.2930 ca         1 5Y7      -0.159000
     18 C33          7.6090    -2.7790    -1.7720 ca         1 5Y7      -0.045000
     19 O2           1.4290     0.0000     0.0000 os         1 5Y7      -0.411600
     20 N5           3.9770     1.2550     0.5640 n3         1 5Y7      -0.693600
     21 C9           5.4270     1.2370     0.3100 c3         1 5Y7       0.170200
     22 C10          6.0400    -0.0490     0.8630 c3         1 5Y7      -0.073400
     23 N12          7.7400     0.0200    -0.8990 nh         1 5Y7      -0.614000
     24 C13          7.2080     1.2790    -1.4350 c3         1 5Y7       0.152800
     25 C14          5.6990     1.3410    -1.1900 c3         1 5Y7      -0.073400
     26 Cl           9.5840     2.0670     0.2960 cl         1 5Y7      -0.093400
     27 N19         11.7360    -0.4390    -1.8610 nb         1 5Y7      -0.680000
     28 C20         10.8640    -1.2990    -2.3500 ca         1 5Y7       0.430200
     29 C22          8.5320    -2.1520    -2.6080 cp         1 5Y7      -0.060000
     30 C25          7.4840    -3.7780    -5.9450 c3         1 5Y7      -0.144300
     31 S26          6.1010    -4.9710    -5.8860 s6         1 5Y7       1.304900
     32 O27          6.5500    -6.2990    -6.1220 o          1 5Y7      -0.614800
     33 N29          5.7980    -4.8870    -4.2530 nh         1 5Y7      -0.651900
     34 H1          -0.3610    -0.0890    -1.0180 h1         1 5Y7       0.028033
     35 H2          -0.3610     0.9250     0.4320 h1         1 5Y7       0.028033
     36 H3          -0.3610    -0.8370     0.5850 h1         1 5Y7       0.028033
     37 H4           1.6900     0.8840     1.8430 h1         1 5Y7       0.022200
     38 H5           1.6900    -0.8850     1.8430 h1         1 5Y7       0.022200
     39 H6           3.9750    -0.0890     2.1710 h1         1 5Y7       0.045700
     40 H7           3.8490    -0.8360     0.5730 h1         1 5Y7       0.045700
     41 H8           2.7230     2.8580     1.1400 h1         1 5Y7       0.042200
     42 H9           3.6450     2.1100     2.4700 h1         1 5Y7       0.042200
     43 H10          4.6650     3.9770     0.2770 hc         1 5Y7       0.052700
     44 H11          4.9600     4.0650     2.0400 hc         1 5Y7       0.052700
     45 H12          6.8110     2.9090     0.4240 hc         1 5Y7       0.051700
     46 H13          6.4240     2.1660     2.0030 hc         1 5Y7       0.051700
     47 H14          8.0160     0.7770     1.0350 h1         1 5Y7       0.048450
     48 H15          7.9710    -0.9910     0.9210 h1         1 5Y7       0.048450
     49 H16         12.1210     1.2410    -0.6990 h4         1 5Y7       0.035100
     50 H17          9.2380    -1.9660    -4.6240 ha         1 5Y7       0.139000
     51 H19          4.0760    -4.9460    -3.0670 h1         1 5Y7       0.047700
     52 H20          5.2230    -6.2630    -2.7860 h1         1 5Y7       0.047700
     53 H21          4.2190    -6.2600    -4.2430 h1         1 5Y7       0.047700
     54 H22          5.9980    -4.1550    -1.6340 ha         1 5Y7       0.137000
     55 H23          7.6490    -2.6140    -0.7020 ha         1 5Y7       0.143000
     56 H25          5.8930    -0.0870     1.9350 hc         1 5Y7       0.059950
     57 H26          5.5650    -0.9040     0.3970 hc         1 5Y7       0.059950
     58 H27          7.6880     2.1130    -0.9380 h1         1 5Y7       0.048450
     59 H28          7.4020     1.3270    -2.5000 h1         1 5Y7       0.048450
     60 H29          5.2170     0.5170    -1.7020 hc         1 5Y7       0.059950
     61 H30          5.3120     2.2810    -1.5620 hc         1 5Y7       0.059950
     62 H31         11.2070    -2.1040    -2.9890 h4         1 5Y7       0.035100
     63 H33          7.2320    -2.9300    -6.5700 h1         1 5Y7       0.114700
     64 H34          8.3920    -4.2610    -6.2850 h1         1 5Y7       0.114700
@<TRIPOS>BOND
     1     1    19 1   
     2     2     3 1   
     3     2    19 1   
     4     3    20 1   
     5     4     5 1   
     6     4    20 1   
     7     5     6 1   
     8     6    21 1   
     9     7    22 1   
    10     7    23 1   
    11     8     9 ar  
    12     8    11 ar  
    13     8    23 1   
    14     9    10 ar  
    15     9    26 1   
    16    10    27 ar  
    17    11    28 ar  
    18    11    29 1   
    19    12    13 ar  
    20    12    29 ar  
    21    13    16 ar  
    22    13    30 1   
    23    14    31 2   
    24    15    33 1   
    25    16    17 ar  
    26    16    33 1   
    27    17    18 ar  
    28    18    29 ar  
    29    20    21 1   
    30    21    22 1   
    31    21    25 1   
    32    23    24 1   
    33    24    25 1   
    34    27    28 ar  
    35    30    31 1   
    36    31    32 2   
    37    31    33 1   
    38     1    34 1   
    39     1    35 1   
    40     1    36 1   
    41     2    37 1   
    42     2    38 1   
    43     3    39 1   
    44     3    40 1   
    45     4    41 1   
    46     4    42 1   
    47     5    43 1   
    48     5    44 1   
    49     6    45 1   
    50     6    46 1   
    51     7    47 1   
    52     7    48 1   
    53    10    49 1   
    54    12    50 1   
    55    15    51 1   
    56    15    52 1   
    57    15    53 1   
    58    17    54 1   
    59    18    55 1   
    60    22    56 1   
    61    22    57 1   
    62    24    58 1   
    63    24    59 1   
    64    25    60 1   
    65    25    61 1   
    66    28    62 1   
    67    30    63 1   
    68    30    64 1   
@<TRIPOS>SUBSTRUCTURE
     1 5Y7         1 TEMP              0 ****  ****    0 ROOT
