@<TRIPOS>MOLECULE
5Y8
   52    56     1     0     0
SMALL
bcc


@<TRIPOS>ATOM
      1 C1           0.0000     0.0000     0.0000 c3         1 5Y8       0.037600
      2 C4           3.3290     0.0000     1.4230 cc         1 5Y8       0.436800
      3 C5           3.6550     0.0000     0.0000 ca         1 5Y8      -0.268900
      4 C6           4.8540     0.0020    -0.7190 ca         1 5Y8      -0.006000
      5 C7           4.8160     0.0010    -2.1050 cp         1 5Y8      -0.066000
      6 C8           3.5870    -0.0010    -2.7760 ca         1 5Y8      -0.030000
      7 C11          6.0810     0.0030    -2.8780 cp         1 5Y8      -0.120300
      8 C12          7.0830     0.9210    -2.5900 ca         1 5Y8       0.410200
      9 N13          8.2100     0.9280    -3.2750 nb         1 5Y8      -0.583000
     10 C16          7.4930    -0.8900    -4.6030 ca         1 5Y8      -0.221900
     11 C18          6.2880    -0.9300    -3.9110 ca         1 5Y8       0.059600
     12 C21          3.6310    -2.6220    -5.8400 c3         1 5Y8       0.004600
     13 C23          2.9180    -5.0310    -5.8450 c3         1 5Y8      -0.029400
     14 C24          3.0850    -5.4180    -7.3330 c3         1 5Y8       0.039000
     15 N2           1.4400     0.0010     0.2660 na         1 5Y8       0.448900
     16 N3           2.0310    -0.0030     1.5340 nd         1 5Y8      -0.624100
     17 C9           2.4140    -0.0030    -2.0820 ca         1 5Y8      -0.129000
     18 C10          2.4260    -0.0030    -0.6870 ca         1 5Y8      -0.162200
     19 C14          8.4390     0.0680    -4.2580 ca         1 5Y8       0.503200
     20 N15          9.6480     0.1160    -4.9430 nv         1 5Y8      -0.657500
     21 Cl           7.8060    -2.0090    -5.8920 cl         1 5Y8       0.068600
     22 N19          5.3150    -1.8740    -4.2260 nh         1 5Y8      -0.390000
     23 C20          4.8040    -1.6700    -5.5870 c3         1 5Y8       0.098800
     24 C22          4.0970    -4.0600    -5.6420 c3         1 5Y8      -0.155000
     25 N25          4.5080    -5.2150    -7.6330 ns         1 5Y8      -0.199900
     26 C26          5.0990    -4.4450    -6.7010 c          1 5Y8       0.636500
     27 O27          6.2650    -4.1110    -6.7120 o          1 5Y8      -0.681500
     28 C28          4.6920    -4.2430    -4.2490 c3         1 5Y8       0.004600
     29 C29          5.8300    -3.2390    -4.0480 c3         1 5Y8       0.098800
     30 H1          -0.5410     0.0260     0.9380 h1         1 5Y8       0.016033
     31 H2          -0.2660    -0.8980    -0.5450 h1         1 5Y8       0.016033
     32 H3          -0.2590     0.8710    -0.5900 h1         1 5Y8       0.016033
     33 H4           4.0390    -0.0020     2.2410 h4         1 5Y8       0.013800
     34 H5           5.8030     0.0030    -0.1980 ha         1 5Y8       0.107000
     35 H6           3.5680    -0.0010    -3.8590 ha         1 5Y8       0.114000
     36 H7           6.9360     1.6410    -1.7950 h4         1 5Y8      -0.013900
     37 H9           2.8320    -2.4020    -5.1420 hc         1 5Y8       0.022200
     38 H10          3.0200    -5.9010    -5.2070 hc         1 5Y8       0.033200
     39 H11          1.9720    -4.5290    -5.6810 hc         1 5Y8       0.033200
     40 H12          2.4760    -4.7740    -7.9570 h1         1 5Y8       0.015700
     41 H13          2.8170    -6.4570    -7.4810 h1         1 5Y8       0.015700
     42 H14          1.4700    -0.0050    -2.6140 ha         1 5Y8       0.103000
     43 H15         10.4340    -0.4070    -4.6090 hn         1 5Y8       0.279300
     44 H16          9.7430     0.7000    -5.7500 hn         1 5Y8       0.279300
     45 H17          5.5920    -1.8720    -6.3020 h1         1 5Y8       0.041200
     46 H18          4.4660    -0.6460    -5.6950 h1         1 5Y8       0.041200
     47 H19          4.9780    -5.5990    -8.4290 hn         1 5Y8       0.193500
     48 H20          3.9240    -4.0710    -3.5040 hc         1 5Y8       0.022200
     49 H21          5.0790    -5.2500    -4.1510 hc         1 5Y8       0.022200
     50 H22          6.2300    -3.3440    -3.0470 h1         1 5Y8       0.041200
     51 H23          6.6090    -3.4270    -4.7760 h1         1 5Y8       0.041200
     52 H8           3.2760    -2.4940    -6.8550 hc         1 5Y8       0.022200
@<TRIPOS>BOND
     1     1    15 1   
     2     1    30 1   
     3     1    31 1   
     4     1    32 1   
     5     2     3 1   
     6     2    16 2   
     7     2    33 1   
     8     3     4 ar  
     9     3    18 ar  
    10     4     5 ar  
    11     4    34 1   
    12     5     6 ar  
    13     5     7 1   
    14     6    17 ar  
    15     6    35 1   
    16     7     8 ar  
    17     7    11 ar  
    18     8     9 ar  
    19     8    36 1   
    20     9    19 ar  
    21    10    11 ar  
    22    10    19 ar  
    23    10    21 1   
    24    11    22 1   
    25    12    23 1   
    26    12    24 1   
    27    12    37 1   
    28    12    52 1   
    29    13    14 1   
    30    13    24 1   
    31    13    38 1   
    32    13    39 1   
    33    14    25 1   
    34    14    40 1   
    35    14    41 1   
    36    15    16 1   
    37    15    18 1   
    38    17    18 ar  
    39    17    42 1   
    40    19    20 1   
    41    20    43 1   
    42    20    44 1   
    43    22    23 1   
    44    22    29 1   
    45    23    45 1   
    46    23    46 1   
    47    24    26 1   
    48    24    28 1   
    49    25    26 1   
    50    25    47 1   
    51    26    27 2   
    52    28    29 1   
    53    28    48 1   
    54    28    49 1   
    55    29    50 1   
    56    29    51 1   
@<TRIPOS>SUBSTRUCTURE
     1 5Y8         1 TEMP              0 ****  ****    0 ROOT
