@<TRIPOS>MOLECULE
molecule
   52    56     1     0     0
SMALL
bcc


@<TRIPOS>ATOM
      1 C1           0.0000     0.0000     0.0000 c3         1 5Y8       0.073600
      2 C4           3.3290     0.0000     1.4230 cc         1 5Y8       0.377800
      3 C5           3.6550     0.0000     0.0000 ca         1 5Y8      -0.257900
      4 C6           4.8540     0.0020    -0.7190 ca         1 5Y8      -0.045000
      5 C7           4.8160     0.0010    -2.1050 cp         1 5Y8      -0.068000
      6 C8           3.5870    -0.0010    -2.7760 ca         1 5Y8      -0.044000
      7 C11          6.0810     0.0030    -2.8780 cp         1 5Y8      -0.138300
      8 C12          7.0830     0.9210    -2.5900 ca         1 5Y8       0.434200
      9 N13          8.2100     0.9280    -3.2750 nb         1 5Y8      -0.703000
     10 C16          7.4930    -0.8900    -4.6030 ca         1 5Y8      -0.148900
     11 C18          6.2880    -0.9300    -3.9110 ca         1 5Y8       0.138600
     12 C21          3.6310    -2.6220    -5.8400 c3         1 5Y8      -0.053900
     13 C23          2.9180    -5.0310    -5.8450 c3         1 5Y8      -0.090400
     14 C24          3.0850    -5.4180    -7.3330 c3         1 5Y8       0.093000
     15 N2           1.4400     0.0010     0.2660 na         1 5Y8       0.052900
     16 N3           2.0310    -0.0030     1.5340 nd         1 5Y8      -0.503100
     17 C9           2.4140    -0.0030    -2.0820 ca         1 5Y8      -0.166000
     18 C10          2.4260    -0.0030    -0.6870 ca         1 5Y8      -0.011200
     19 C14          8.4390     0.0680    -4.2580 ca         1 5Y8       0.684200
     20 N15          9.6480     0.1160    -4.9430 nv         1 5Y8      -1.077500
     21 Cl           7.8060    -2.0090    -5.8920 cl         1 5Y8      -0.050400
     22 N19          5.3150    -1.8740    -4.2260 nh         1 5Y8      -0.615000
     23 C20          4.8040    -1.6700    -5.5870 c3         1 5Y8       0.145800
     24 C22          4.0970    -4.0600    -5.6420 c3         1 5Y8      -0.150000
     25 N25          4.5080    -5.2150    -7.6330 ns         1 5Y8      -0.589900
     26 C26          5.0990    -4.4450    -6.7010 c          1 5Y8       0.712500
     27 O27          6.2650    -4.1110    -6.7120 o          1 5Y8      -0.635500
     28 C28          4.6920    -4.2430    -4.2490 c3         1 5Y8      -0.053900
     29 C29          5.8300    -3.2390    -4.0480 c3         1 5Y8       0.145800
     30 H1          -0.5410     0.0260     0.9380 h1         1 5Y8       0.050367
     31 H2          -0.2660    -0.8980    -0.5450 h1         1 5Y8       0.050367
     32 H3          -0.2590     0.8710    -0.5900 h1         1 5Y8       0.050367
     33 H4           4.0390    -0.0020     2.2410 h4         1 5Y8       0.061800
     34 H5           5.8030     0.0030    -0.1980 ha         1 5Y8       0.135000
     35 H6           3.5680    -0.0010    -3.8590 ha         1 5Y8       0.140000
     36 H7           6.9360     1.6410    -1.7950 h4         1 5Y8       0.031100
     37 H9           2.8320    -2.4020    -5.1420 hc         1 5Y8       0.053450
     38 H10          3.0200    -5.9010    -5.2070 hc         1 5Y8       0.061700
     39 H11          1.9720    -4.5290    -5.6810 hc         1 5Y8       0.061700
     40 H12          2.4760    -4.7740    -7.9570 h1         1 5Y8       0.045200
     41 H13          2.8170    -6.4570    -7.4810 h1         1 5Y8       0.045200
     42 H14          1.4700    -0.0050    -2.6140 ha         1 5Y8       0.128000
     43 H15         10.4340    -0.4070    -4.6090 hn         1 5Y8       0.439300
     44 H16          9.7430     0.7000    -5.7500 hn         1 5Y8       0.439300
     45 H17          5.5920    -1.8720    -6.3020 h1         1 5Y8       0.062950
     46 H18          4.4660    -0.6460    -5.6950 h1         1 5Y8       0.062950
     47 H19          4.9780    -5.5990    -8.4290 hn         1 5Y8       0.337500
     48 H20          3.9240    -4.0710    -3.5040 hc         1 5Y8       0.053450
     49 H21          5.0790    -5.2500    -4.1510 hc         1 5Y8       0.053450
     50 H22          6.2300    -3.3440    -3.0470 h1         1 5Y8       0.062950
     51 H23          6.6090    -3.4270    -4.7760 h1         1 5Y8       0.062950
     52 H8           3.2760    -2.4940    -6.8550 hc         1 5Y8       0.053450
@<TRIPOS>BOND
     1    27    26 2
     2    25    26 1
     3    25    14 1
     4    26    24 1
     5    21    10 1
     6    12    24 1
     7    12    23 1
     8    14    13 1
     9    24    28 1
    10    24    13 1
    11    20    19 1
    12    23    22 1
    13    28    29 1
    14    10    19 ar
    15    10    11 ar
    16    19     9 ar
    17    22    11 1
    18    22    29 1
    19    11     7 ar
    20     9     8 ar
    21     7     8 ar
    22     7     5 1
    23     4     5 ar
    24     4     3 ar
    25     5     6 ar
    26     3     2 1
    27     3    18 ar
    28     6    17 ar
    29     2    16 2
    30    18    17 ar
    31    18    15 1
    32    16    15 1
    33    15     1 1
    34     1    30 1
    35     1    31 1
    36     1    32 1
    37     2    33 1
    38     4    34 1
    39     6    35 1
    40     8    36 1
    41    12    52 1
    42    12    37 1
    43    13    38 1
    44    13    39 1
    45    14    40 1
    46    14    41 1
    47    17    42 1
    48    20    43 1
    49    20    44 1
    50    23    45 1
    51    23    46 1
    52    25    47 1
    53    28    48 1
    54    28    49 1
    55    29    50 1
    56    29    51 1
@<TRIPOS>SUBSTRUCTURE
     1 5Y8         1 TEMP              0 ****  ****    0 ROOT
