@<TRIPOS>MOLECULE
molecule
   15    14     1     0     0
SMALL
bcc


@<TRIPOS>ATOM
      1 C01          0.0000     0.0000     0.0000 c3         1 5Y9       0.100800
      2 N02          1.4650     0.0000     0.0000 n          1 5Y9      -0.502800
      3 C03          2.1980     0.0000     1.2680 c3         1 5Y9       0.100800
      4 C04          2.1380    -0.0000    -1.1680 c          1 5Y9       0.659100
      5 C05          3.6410     0.1070    -1.1710 c3         1 5Y9      -0.169100
      6 O06          1.5340    -0.0860    -2.2170 o          1 5Y9      -0.607100
      7 H1          -0.3610     0.2410     0.9920 h1         1 5Y9       0.040033
      8 H2          -0.3610    -0.9800    -0.2870 h1         1 5Y9       0.040033
      9 H3          -0.3610     0.7390    -0.7050 h1         1 5Y9       0.040033
     10 H4           2.7530     0.9260     1.3650 h1         1 5Y9       0.040033
     11 H5           2.8860    -0.8370     1.2880 h1         1 5Y9       0.040033
     12 H6           1.4980    -0.0890     2.0900 h1         1 5Y9       0.040033
     13 H7           4.0660    -0.7580    -0.6770 hc         1 5Y9       0.059700
     14 H8           3.9400     1.0060    -0.6460 hc         1 5Y9       0.059700
     15 H9           3.9980     0.1500    -2.1930 hc         1 5Y9       0.059700
@<TRIPOS>BOND
     1     3     2 1   
     2     1     2 1   
     3     2     4 1   
     4     4     6 2   
     5     4     5 1   
     6     1     7 1   
     7     1     8 1   
     8     1     9 1   
     9     3    10 1   
    10     3    11 1   
    11     3    12 1   
    12     5    13 1   
    13     5    14 1   
    14     5    15 1   
@<TRIPOS>SUBSTRUCTURE
     1 5Y9         1 TEMP              0 ****  ****    0 ROOT
