@<TRIPOS>MOLECULE
molecule
   33    35     1     0     0
SMALL
bcc


@<TRIPOS>ATOM
      1 C1           0.0000     0.0000     0.0000 ca         1 5YA      -0.128000
      2 C2           1.3900     0.0000     0.0000 ca         1 5YA      -0.107000
      3 C3           2.0970     0.0000     1.1910 cp         1 5YA      -0.041000
      4 C4           1.3890    -0.0000     2.4160 ca         1 5YA      -0.021000
      5 C5          -0.0280     0.0010     2.3990 ca         1 5YA      -0.036000
      6 C6          -0.7040     0.0000     1.1660 ca         1 5YA      -0.109000
      7 C7           2.0620    -0.0010     3.6460 ca         1 5YA      -0.125000
      8 C8           1.3490    -0.0000     4.8070 ca         1 5YA      -0.123000
      9 O1           8.4300    -0.8100     0.4780 o          1 5YA      -0.574100
     10 C9          -0.0450    -0.0000     4.7910 ca         1 5YA      -0.126000
     11 C10         -0.7310     0.0010     3.6150 ca         1 5YA      -0.114000
     12 C11          3.5760    -0.0000     1.1820 cp         1 5YA      -0.009000
     13 C12          4.2700    -0.9280     0.4010 ca         1 5YA      -0.128000
     14 C13          5.6460    -0.9290     0.3930 ca         1 5YA      -0.087500
     15 N1           8.5050     0.8900     1.9040 ns         1 5YA      -0.471400
     16 C14          6.3500    -0.0020     1.1660 ca         1 5YA      -0.140600
     17 C15          5.6560     0.9250     1.9480 ca         1 5YA      -0.087500
     18 C16          4.2790     0.9290     1.9510 ca         1 5YA      -0.128000
     19 C17          7.8260    -0.0030     1.1580 c          1 5YA       0.686700
     20 O2           9.9210     0.8900     1.8960 oh         1 5YA      -0.360100
     21 H1          -0.5320    -0.0000    -0.9430 ha         1 5YA       0.132000
     22 H2           1.9260    -0.0000    -0.9410 ha         1 5YA       0.136000
     23 H3          -1.7870     0.0000     1.1440 ha         1 5YA       0.134000
     24 H4           3.1450    -0.0010     3.6740 ha         1 5YA       0.142000
     25 H5           1.8720    -0.0010     5.7550 ha         1 5YA       0.129000
     26 H6          -0.5900     0.0000     5.7270 ha         1 5YA       0.130000
     27 H7          -1.8150     0.0010     3.6180 ha         1 5YA       0.134000
     28 H8           3.7240    -1.6470    -0.1990 ha         1 5YA       0.144500
     29 H9           6.1840    -1.6480    -0.2140 ha         1 5YA       0.142000
     30 H10          8.0090     1.5540     2.4650 hn         1 5YA       0.320500
     31 H11          6.2010     1.6450     2.5460 ha         1 5YA       0.142000
     32 H12          3.7410     1.6480     2.5580 ha         1 5YA       0.144500
     33 H13         10.2390     1.5700     2.4670 ho         1 5YA       0.398000
@<TRIPOS>BOND
     1     9    19 2   
     2    17    18 ar  
     3    17    16 ar  
     4    18    12 ar  
     5    19    16 1   
     6    19    15 1   
     7    16    14 ar  
     8    12     3 1   
     9    12    13 ar  
    10     7     8 ar  
    11     7     4 ar  
    12     8    10 ar  
    13     3     4 ar  
    14     3     2 ar  
    15    15    20 1   
    16     4     5 ar  
    17    14    13 ar  
    18     2     1 ar  
    19    10    11 ar  
    20     5    11 ar  
    21     5     6 ar  
    22     1     6 ar  
    23     1    21 1   
    24     2    22 1   
    25     6    23 1   
    26     7    24 1   
    27     8    25 1   
    28    10    26 1   
    29    11    27 1   
    30    13    28 1   
    31    14    29 1   
    32    15    30 1   
    33    17    31 1   
    34    18    32 1   
    35    20    33 1   
@<TRIPOS>SUBSTRUCTURE
     1 5YA         1 TEMP              0 ****  ****    0 ROOT
