@<TRIPOS>MOLECULE
molecule
   62    63     1     0     0
SMALL
bcc


@<TRIPOS>ATOM
      1 C26          0.0000     0.0000     0.0000 c          1 5YB       0.645700
      2 O27          1.2160     0.0000     0.0000 o          1 5YB      -0.578100
      3 C28         -0.7390     0.0000     1.2810 ca         1 5YB      -0.069600
      4 C29         -0.0420    -0.0020     2.4890 ca         1 5YB      -0.081500
      5 C30         -0.7310    -0.0020     3.6820 ca         1 5YB      -0.101000
      6 C31         -2.1270    -0.0000     3.6820 ca         1 5YB      -0.190900
      7 C32         -2.8240     0.0010     2.4740 ca         1 5YB      -0.101000
      8 C33         -2.1350     0.0070     1.2810 ca         1 5YB      -0.081500
      9 C34         -2.8680    -0.0000     4.9650 ce         1 5YB       0.526800
     10 N35         -2.2170    -0.0020     6.0930 n2         1 5YB      -0.716100
     11 N36         -4.2460     0.0010     4.9650 nz         1 5YB      -0.795600
     12 N25         -0.6730     0.0070    -1.1670 ns         1 5YB      -0.561900
     13 C24          0.0600     0.0080    -2.4360 c3         1 5YB       0.118000
     14 C23         -0.9340     0.0170    -3.5990 c3         1 5YB      -0.182400
     15 C21         -0.1800     0.0180    -4.9040 c          1 5YB       0.678100
     16 O22          1.0330     0.0110    -4.9040 o          1 5YB      -0.630100
     17 N20         -0.8540     0.0250    -6.0720 ns         1 5YB      -0.504900
     18 C15         -0.1250     0.1330    -7.3370 c3         1 5YB       0.058700
     19 C13          0.2070     1.5800    -7.6040 c          1 5YB       0.656100
     20 O14         -0.1330     2.4340    -6.8140 o          1 5YB      -0.644100
     21 C16         -0.9930    -0.4090    -8.4750 c3         1 5YB      -0.191400
     22 C17         -1.2100    -1.8870    -8.2800 c          1 5YB       0.883600
     23 O18         -2.0360    -2.5580    -9.0980 o          1 5YB      -0.850800
     24 O19         -0.6400    -2.4700    -7.3880 o          1 5YB      -0.850800
     25 N12          0.8810     1.9220    -8.7200 ns         1 5YB      -0.547900
     26 C08          1.2020     3.3270    -8.9790 c3         1 5YB       0.020700
     27 C09          0.0320     3.9940    -9.6550 c          1 5YB       0.882600
     28 O10          0.1010     5.2920    -9.9890 o          1 5YB      -0.821800
     29 C07          2.4310     3.4100    -9.8870 c3         1 5YB      -0.040100
     30 C04          3.6300     2.8530    -9.1630 ca         1 5YB      -0.057300
     31 C03          3.9330     1.5080    -9.2620 ca         1 5YB      -0.124500
     32 C05          4.4220     3.6860    -8.3950 ca         1 5YB      -0.124500
     33 C02          5.0340     0.9970    -8.5970 ca         1 5YB      -0.132500
     34 C06          5.5210     3.1750    -7.7300 ca         1 5YB      -0.132500
     35 C01          5.8280     1.8310    -7.8340 ca         1 5YB      -0.152000
     36 O11         -0.9680     3.3600    -9.8940 o          1 5YB      -0.821800
     37 H291         1.0420    -0.0030     2.4900 ha         1 5YB       0.173000
     38 H301        -0.1900    -0.0030     4.6210 ha         1 5YB       0.131500
     39 H321        -3.9070     0.0040     2.4740 ha         1 5YB       0.131500
     40 H331        -2.6770     0.0080     0.3430 ha         1 5YB       0.173000
     41 H351        -2.7160    -0.0020     6.9600 hn         1 5YB       0.417400
     42 H362        -4.5800     0.0010     5.9080 hn         1 5YB       0.457800
     43 H361        -4.5790     0.8190     4.4940 hn         1 5YB       0.457800
     44 H251        -1.6740     0.0120    -1.1680 hn         1 5YB       0.302500
     45 H242         0.6780    -0.8790    -2.4970 h1         1 5YB       0.083200
     46 H241         0.6870     0.8900    -2.4910 h1         1 5YB       0.083200
     47 H231        -1.5610    -0.8640    -3.5450 hc         1 5YB       0.055200
     48 H232        -1.5520     0.9050    -3.5390 hc         1 5YB       0.055200
     49 H201        -1.8550    -0.0050    -6.0720 hn         1 5YB       0.314500
     50 H151         0.7910    -0.4420    -7.2770 h1         1 5YB       0.099700
     51 H161        -0.4960    -0.2380    -9.4220 hc         1 5YB       0.058700
     52 H162        -1.9500     0.1000    -8.4730 hc         1 5YB       0.058700
     53 H121         1.1190     1.2220    -9.3950 hn         1 5YB       0.305500
     54 H081         1.4110     3.8280    -8.0410 h1         1 5YB       0.077700
     55 H071         2.6170     4.4440   -10.1510 hc         1 5YB       0.061200
     56 H072         2.2540     2.8340   -10.7880 hc         1 5YB       0.061200
     57 H031         3.3100     0.8540    -9.8610 ha         1 5YB       0.132000
     58 H051         4.1810     4.7390    -8.3140 ha         1 5YB       0.132000
     59 H021         5.2730    -0.0560    -8.6770 ha         1 5YB       0.114000
     60 H061         6.1420     3.8280    -7.1300 ha         1 5YB       0.114000
     61 H011         6.6890     1.4310    -7.3130 ha         1 5YB       0.108000
     62 H363        -4.5810    -0.8170     4.4950 hn         1 5YB       0.457800
@<TRIPOS>BOND
     1     1     3 1
     2     1     2 2
     3     1    12 1
     4     3     4 ar
     5     3     8 ar
     6     4     5 ar
     7     5     6 ar
     8     6     9 1
     9     6     7 ar
    10     7     8 ar
    11     9    11 1
    12     9    10 2
    13    12    13 1
    14    13    14 1
    15    14    15 1
    16    15    16 2
    17    15    17 1
    18    17    18 1
    19    18    21 1
    20    18    19 1
    21    19    20 2
    22    19    25 1
    23    21    22 1
    24    22    23 1
    25    22    24 1
    26    25    26 1
    27    26    29 1
    28    26    27 1
    29    27    28 1
    30    27    36 1
    31    29    30 1
    32    30    32 ar
    33    30    31 ar
    34    31    33 ar
    35    32    34 ar
    36    33    35 ar
    37    34    35 ar
    38     4    37 1
    39     5    38 1
    40     7    39 1
    41     8    40 1
    42    10    41 1
    43    11    42 1
    44    11    43 1
    45    12    44 1
    46    13    46 1
    47    13    45 1
    48    14    48 1
    49    14    47 1
    50    17    49 1
    51    18    50 1
    52    21    51 1
    53    21    52 1
    54    25    53 1
    55    26    54 1
    56    29    55 1
    57    29    56 1
    58    31    57 1
    59    32    58 1
    60    33    59 1
    61    34    60 1
    62    35    61 1
    63    62    11 1
@<TRIPOS>SUBSTRUCTURE
     1 5YB         1 TEMP              0 ****  ****    0 ROOT
