@<TRIPOS>MOLECULE
molecule
   37    39     1     0     0
SMALL
bcc


@<TRIPOS>ATOM
      1 C4           0.0000     0.0000     0.0000 cc         1 5YC      -0.322200
      2 C14         -3.3280    -2.5210     3.7580 ca         1 5YC      -0.194000
      3 C5           1.3960     0.0000     0.0000 c          1 5YC       0.598500
      4 C6           1.3380    -0.0020     2.3300 cc         1 5YC       0.191600
      5 C11         -2.8250    -0.3300     5.3750 ca         1 5YC      -0.089000
      6 C7           3.9250    -0.0020     2.5700 cc         1 5YC       0.470700
      7 C8           5.3780    -0.0040     2.9690 c3         1 5YC      -0.102400
      8 C9          -2.8720    -1.3360     3.1980 ca         1 5YC       0.203600
      9 C10         -2.6200    -0.2380     4.0120 ca         1 5YC      -0.194000
     10 C12         -3.2750    -1.5140     5.9300 ca         1 5YC      -0.182000
     11 C13         -3.5310    -2.6070     5.1210 ca         1 5YC      -0.089000
     12 N1           2.0720     0.0000     1.1850 n          1 5YC       0.058300
     13 N2           0.0180    -0.0070     2.3330 nd         1 5YC      -0.332600
     14 C3          -0.6750    -0.0010     1.2010 cd         1 5YC       0.184400
     15 N3           3.4500    -0.0010     1.3740 n2         1 5YC      -0.443800
     16 O            2.0100     0.0010    -1.0560 o          1 5YC      -0.599500
     17 S            2.5200    -0.0060     3.6500 ss         1 5YC      -0.235300
     18 C2          -2.1820     0.0050     1.2300 c3         1 5YC       0.295000
     19 N           -2.6640    -1.2470     1.8190 nh         1 5YC      -0.732000
     20 C1          -2.9300    -2.4050     0.9630 c3         1 5YC       0.234800
     21 C           -1.6590    -3.2510     0.8410 c3         1 5YC      -0.123100
     22 H1          -0.5470     0.0050    -0.9350 ha         1 5YC       0.174000
     23 H3          -2.6270     0.5250     6.0100 ha         1 5YC       0.126000
     24 H4           5.8550    -0.9020     2.5930 hc         1 5YC       0.071700
     25 H5           5.4560     0.0200     4.0490 hc         1 5YC       0.071700
     26 H6           5.8690     0.8670     2.5520 hc         1 5YC       0.071700
     27 H7          -2.2660     0.6890     3.5780 ha         1 5YC       0.133000
     28 H8          -3.4350    -1.5830     6.9990 ha         1 5YC       0.125000
     29 H9          -3.8860    -3.5320     5.5590 ha         1 5YC       0.126000
     30 H11         -2.5280     0.8410     1.8260 h1         1 5YC       0.069200
     31 H12         -2.5630     0.0990     0.2200 h1         1 5YC       0.069200
     32 H13         -3.7210    -3.0030     1.3990 h1         1 5YC       0.049700
     33 H14         -3.2330    -2.0650    -0.0200 h1         1 5YC       0.049700
     34 H15         -1.9130    -4.2990     0.9360 hc         1 5YC       0.044033
     35 H16         -1.2010    -3.0760    -0.1250 hc         1 5YC       0.044033
     36 H17         -0.9650    -2.9750     1.6250 hc         1 5YC       0.044033
     37 H2          -3.5270    -3.3780     3.1260 ha         1 5YC       0.133000
@<TRIPOS>BOND
     1    16     3 2
     2     7     6 1
     3    15     6 2
     4    15    12 1
     5     3    12 1
     6     3     1 1
     7     6    17 1
     8    12     4 1
     9    21    20 1
    10     1    14 2
    11     4    17 1
    12     4    13 2
    13    14    13 1
    14    14    18 1
    15    20    19 1
    16    18    19 1
    17    19     8 1
    18     8     2 ar
    19     8     9 ar
    20     2    11 ar
    21     9     5 ar
    22    11    10 ar
    23     5    10 ar
    24     1    22 1
    25     2    37 1
    26     5    23 1
    27     7    24 1
    28     7    25 1
    29     7    26 1
    30     9    27 1
    31    10    28 1
    32    11    29 1
    33    18    30 1
    34    18    31 1
    35    20    32 1
    36    20    33 1
    37    21    34 1
    38    21    35 1
    39    21    36 1
@<TRIPOS>SUBSTRUCTURE
     1 5YC         1 TEMP              0 ****  ****    0 ROOT
