@<TRIPOS>MOLECULE
5YD
   46    48     1     0     0
SMALL
bcc


@<TRIPOS>ATOM
      1 C4           0.0000     0.0000     0.0000 ca         1 5YD       0.422200
      2 C14          3.7770     5.6360    -4.0800 ca         1 5YD      -0.101300
      3 C6          -0.0650    -0.0070     2.3030 ca         1 5YD       0.413200
      4 C11          3.3110     3.0250    -3.2870 ca         1 5YD      -0.148600
      5 C7           2.1440     0.0010    -1.3000 c3         1 5YD       0.121300
      6 C9           3.0620     1.6300    -2.8630 c          1 5YD       0.595700
      7 C12          2.8530     4.0870    -2.5060 ca         1 5YD      -0.061500
      8 C13          3.0880     5.3860    -2.9070 ca         1 5YD      -0.093000
      9 C3           1.3820     0.0000     0.0000 ca         1 5YD      -0.250600
     10 C1           1.3150    -0.0020     2.3810 ca         1 5YD      -0.223300
     11 C2           2.0590     0.0000     1.2100 ca         1 5YD      -0.051000
     12 N5          -0.6750    -0.0010     1.1330 nb         1 5YD      -0.581000
     13 N8           2.3920     1.3830    -1.7200 ns         1 5YD      -0.201900
     14 O10          3.4610     0.7070    -3.5450 o          1 5YD      -0.647100
     15 C15          4.2340     4.5870    -4.8590 ca         1 5YD      -0.093000
     16 C16          4.0050     3.2840    -4.4700 ca         1 5YD      -0.061500
     17 N18          2.9110     7.5130    -5.3520 n7         1 5YD      -0.584100
     18 S19          2.7200     9.1280    -5.6660 sy         1 5YD       1.043200
     19 O20          1.5880     9.2390    -6.5190 o          1 5YD      -0.584800
     20 O21          2.8200     9.7950    -4.4160 o          1 5YD      -0.584800
     21 C22          4.1110     9.6420    -6.6180 ca         1 5YD      -0.176500
     22 C23          5.2480    10.1050    -5.9840 ca         1 5YD       0.031500
     23 C24          6.3400    10.5080    -6.7290 ca         1 5YD      -0.165500
     24 C25          6.2940    10.4490    -8.1100 ca         1 5YD       0.157900
     25 C26          5.1540     9.9850    -8.7450 ca         1 5YD      -0.165500
     26 C27          4.0660     9.5780    -7.9970 ca         1 5YD       0.031500
     27 F28          7.3600    10.8430    -8.8410 f          1 5YD      -0.123900
     28 H1          -0.5350     0.0050    -0.9420 h4         1 5YD      -0.014900
     29 H2          -0.6530    -0.0080     3.2130 h4         1 5YD      -0.017900
     30 H3           1.5640    -0.5080    -2.0600 h1         1 5YD       0.031200
     31 H4           3.0900    -0.5100    -1.1650 h1         1 5YD       0.031200
     32 H5           2.3130     3.8930    -1.5870 ha         1 5YD       0.117000
     33 H6           2.7340     6.2110    -2.3020 ha         1 5YD       0.112500
     34 H7           1.8100    -0.0040     3.3450 ha         1 5YD       0.116000
     35 H8           3.1410     0.0020     1.2410 ha         1 5YD       0.114000
     36 H9           2.0590     2.1430    -1.1610 hn         1 5YD       0.183500
     37 H10          4.7720     4.7900    -5.7770 ha         1 5YD       0.112500
     38 H11          4.3620     2.4640    -5.0800 ha         1 5YD       0.117000
     39 H12          4.9460     7.1060    -5.0850 h1         1 5YD       0.018200
     40 H13          4.1060     7.6940    -3.6430 h1         1 5YD       0.018200
     41 H14          2.2440     6.8530    -5.6990 hn         1 5YD       0.356800
     42 H15          5.2840    10.1510    -4.9020 ha         1 5YD       0.126000
     43 H16          7.2320    10.8710    -6.2310 ha         1 5YD       0.126000
     44 H17          5.1170     9.9370    -9.8270 ha         1 5YD       0.126000
     45 H18          3.1730     9.2140    -8.4930 ha         1 5YD       0.126000
     46 C17          4.0250     7.0580    -4.5160 c3         1 5YD       0.284100
@<TRIPOS>BOND
     1     1     9 ar  
     2     1    12 ar  
     3     1    28 1   
     4     2     8 ar  
     5     2    15 ar  
     6     2    46 1   
     7     3    10 ar  
     8     3    12 ar  
     9     3    29 1   
    10     4     6 1   
    11     4     7 ar  
    12     4    16 ar  
    13     5     9 1   
    14     5    13 1   
    15     5    30 1   
    16     5    31 1   
    17     6    13 1   
    18     6    14 2   
    19     7     8 ar  
    20     7    32 1   
    21     8    33 1   
    22     9    11 ar  
    23    10    11 ar  
    24    10    34 1   
    25    11    35 1   
    26    13    36 1   
    27    15    16 ar  
    28    15    37 1   
    29    16    38 1   
    30    17    18 1   
    31    17    41 1   
    32    17    46 1   
    33    18    19 2   
    34    18    20 2   
    35    18    21 1   
    36    21    22 ar  
    37    21    26 ar  
    38    22    23 ar  
    39    22    42 1   
    40    23    24 ar  
    41    23    43 1   
    42    24    25 ar  
    43    24    27 1   
    44    25    26 ar  
    45    25    44 1   
    46    26    45 1   
    47    39    46 1   
    48    40    46 1   
@<TRIPOS>SUBSTRUCTURE
     1 5YD         1 TEMP              0 ****  ****    0 ROOT
