@<TRIPOS>MOLECULE
5YE
   42    45     1     0     0
SMALL
bcc


@<TRIPOS>ATOM
      1 C4           0.0000     0.0000     0.0000 cc         1 5YE      -0.311200
      2 C14         -3.5330    -2.6060     5.1220 ca         1 5YE      -0.085000
      3 C5           1.3960     0.0000     0.0000 c          1 5YE       0.480500
      4 C6           3.4550     0.0010     1.3350 cc         1 5YE      -0.230600
      5 C11          4.6310    -0.0030     0.3550 c3         1 5YE       0.078900
      6 C7           3.9230     0.0000     2.5740 cd         1 5YE      -0.003400
      7 C8           1.3390    -0.0010     2.3290 cc         1 5YE       0.049600
      8 C9           5.4350     0.0050     2.6060 c3         1 5YE       0.094900
      9 C10          5.8510     0.4430     1.1860 c3         1 5YE      -0.030400
     10 C12         -2.8720    -1.3350     3.2000 ca         1 5YE       0.069600
     11 C13         -3.3290    -2.5200     3.7590 ca         1 5YE      -0.158500
     12 N1           2.0700     0.0000     1.1880 n          1 5YE       0.406800
     13 N2           0.0180    -0.0070     2.3340 nd         1 5YE      -0.214600
     14 C3          -0.6750    -0.0000     1.2020 cd         1 5YE       0.132400
     15 C15         -3.2820    -1.5110     5.9310 ca         1 5YE       0.045900
     16 C16         -2.8200    -0.3290     5.3760 ca         1 5YE      -0.085000
     17 C17         -2.6100    -0.2410     4.0140 ca         1 5YE      -0.158500
     18 N           -2.6640    -1.2460     1.8190 nh         1 5YE      -0.382000
     19 C1          -2.9300    -2.4040     0.9620 c3         1 5YE       0.166800
     20 C           -4.3840    -2.3650     0.4890 c3         1 5YE      -0.026100
     21 C2          -2.1810     0.0060     1.2300 c3         1 5YE       0.228000
     22 O            2.0110     0.0010    -1.0540 o          1 5YE      -0.672500
     23 S            2.5170    -0.0010     3.6510 ss         1 5YE      -0.231800
     24 H1          -0.5470     0.0050    -0.9350 ha         1 5YE       0.149000
     25 H2          -3.8900    -3.5310     5.5590 ha         1 5YE       0.113500
     26 H3           4.7900    -1.0000    -0.0360 hc         1 5YE       0.039200
     27 H4           4.4500     0.6990    -0.4500 hc         1 5YE       0.039200
     28 H5           5.8100    -0.9890     2.8180 hc         1 5YE       0.027700
     29 H6           5.7940     0.7160     3.3400 hc         1 5YE       0.027700
     30 H7           5.9800     1.5180     1.1360 hc         1 5YE       0.027700
     31 H8           6.7460    -0.0780     0.8670 hc         1 5YE       0.027700
     32 H9          -3.5300    -3.3760     3.1260 ha         1 5YE       0.123000
     33 H11         -2.6200     0.5260     6.0120 ha         1 5YE       0.113500
     34 H12         -2.2510     0.6840     3.5800 ha         1 5YE       0.123000
     35 H13         -2.2700    -2.3780     0.1040 h1         1 5YE       0.026200
     36 H14         -2.7570    -3.3150     1.5230 h1         1 5YE       0.026200
     37 H15         -4.8280    -3.3460     0.6030 hc         1 5YE       0.010033
     38 H16         -4.4160    -2.0720    -0.5540 hc         1 5YE       0.010033
     39 H17         -4.9380    -1.6470     1.0820 hc         1 5YE       0.010033
     40 H18         -2.5610     0.1000     0.2200 h1         1 5YE       0.038700
     41 H19         -2.5280     0.8420     1.8250 h1         1 5YE       0.038700
     42 F           -3.4870    -1.5950     7.2640 f          1 5YE      -0.133900
@<TRIPOS>BOND
     1     1     3 1   
     2     1    14 2   
     3     1    24 1   
     4     2    11 ar  
     5     2    15 ar  
     6     2    25 1   
     7     3    12 1   
     8     3    22 2   
     9     4     5 1   
    10     4     6 2   
    11     4    12 1   
    12     5     9 1   
    13     5    26 1   
    14     5    27 1   
    15     6     8 1   
    16     6    23 1   
    17     7    12 1   
    18     7    13 2   
    19     7    23 1   
    20     8     9 1   
    21     8    28 1   
    22     8    29 1   
    23     9    30 1   
    24     9    31 1   
    25    10    11 ar  
    26    10    17 ar  
    27    10    18 1   
    28    11    32 1   
    29    13    14 1   
    30    14    21 1   
    31    15    16 ar  
    32    15    42 1   
    33    16    17 ar  
    34    16    33 1   
    35    17    34 1   
    36    18    19 1   
    37    18    21 1   
    38    19    20 1   
    39    19    35 1   
    40    19    36 1   
    41    20    37 1   
    42    20    38 1   
    43    20    39 1   
    44    21    40 1   
    45    21    41 1   
@<TRIPOS>SUBSTRUCTURE
     1 5YE         1 TEMP              0 ****  ****    0 ROOT
