@<TRIPOS>MOLECULE
5YF
   42    45     1     0     0
SMALL
bcc


@<TRIPOS>ATOM
      1 C4           0.0000     0.0000     0.0000 cc         1 5YF      -0.294200
      2 C14         -1.9890     0.0130     3.8810 cx         1 5YF      -0.046400
      3 C5           1.3780     0.0000     0.0000 cd         1 5YF       0.147400
      4 C6           1.3770    -0.0010     2.3090 cc         1 5YF       0.041600
      5 C11          5.1430     1.7180    -4.8320 ca         1 5YF       0.062900
      6 C7           2.1420     0.0020    -1.3000 c3         1 5YF       0.260600
      7 C8           3.6200     1.3870    -2.5440 ca         1 5YF       0.141100
      8 C9           4.3560     2.5480    -2.7270 ca         1 5YF      -0.151000
      9 C10          5.1150     2.7120    -3.8690 ca         1 5YF      -0.088500
     10 C12          4.4040     0.5600    -4.6540 ca         1 5YF      -0.088500
     11 C13          3.6440     0.3940    -3.5120 ca         1 5YF      -0.151000
     12 N1           2.0240     0.0000     1.1590 nd         1 5YF      -0.202600
     13 C3          -0.6840     0.0040     1.2180 c          1 5YF       0.481500
     14 O1           2.8730     1.2230    -1.4200 os         1 5YF      -0.289900
     15 O           -1.9050     0.0130     1.2350 o          1 5YF      -0.667500
     16 S            1.9590    -0.0020     3.9830 ss         1 5YF      -0.263800
     17 C1           0.3330     0.0170     4.6880 cc         1 5YF       0.029600
     18 C           -0.0280     0.0260     6.1520 c3         1 5YF       0.113200
     19 N            0.0180     0.0080     2.3880 n          1 5YF       0.399800
     20 C2          -0.4990     0.0130     3.6610 cd         1 5YF      -0.175600
     21 C16         -2.7760     1.2290     3.3900 cx         1 5YF      -0.056700
     22 C15         -2.5540     1.0160     4.8890 cx         1 5YF      -0.092400
     23 C17         -4.1840     0.9850     2.8430 c3         1 5YF       0.257400
     24 O2          -4.7140     2.2090     2.3290 oh         1 5YF      -0.590800
     25 H1          -0.5420    -0.1560    -0.9250 ha         1 5YF       0.149000
     26 H2          -2.5250    -0.9270     3.8280 hc         1 5YF       0.078700
     27 H3           1.4470    -0.0860    -2.1270 h1         1 5YF       0.014700
     28 H4           2.8300    -0.8340    -1.3150 h1         1 5YF       0.014700
     29 H5           4.3360     3.3260    -1.9730 ha         1 5YF       0.121000
     30 H6           5.6910     3.6190    -4.0100 ha         1 5YF       0.118000
     31 H7           4.4250    -0.2170    -5.4090 ha         1 5YF       0.118000
     32 H8           3.0690    -0.5130    -3.3720 ha         1 5YF       0.121000
     33 H10          0.8040    -0.3570     6.7310 hc         1 5YF       0.020700
     34 H11         -0.2470     1.0410     6.4640 hc         1 5YF       0.020700
     35 H12         -0.8990    -0.5970     6.3130 hc         1 5YF       0.020700
     36 H13         -2.1720     2.0120     2.9490 hc         1 5YF       0.070700
     37 H14         -1.8280     1.6730     5.3520 hc         1 5YF       0.052200
     38 H15         -3.4190     0.6800     5.4470 hc         1 5YF       0.052200
     39 H16         -4.1410     0.2480     2.0500 h1         1 5YF      -0.003800
     40 H17         -4.8230     0.6210     3.6390 h1         1 5YF      -0.003800
     41 H18         -5.5890     2.0630     2.0110 ho         1 5YF       0.388000
     42 F            5.8850     1.8800    -5.9490 f          1 5YF      -0.128900
@<TRIPOS>BOND
     1     1     3 2   
     2     1    13 1   
     3     1    25 1   
     4     2    20 1   
     5     2    21 1   
     6     2    22 1   
     7     2    26 1   
     8     3     6 1   
     9     3    12 1   
    10     4    12 2   
    11     4    16 1   
    12     4    19 1   
    13     5     9 ar  
    14     5    10 ar  
    15     5    42 1   
    16     6    14 1   
    17     6    27 1   
    18     6    28 1   
    19     7     8 ar  
    20     7    11 ar  
    21     7    14 1   
    22     8     9 ar  
    23     8    29 1   
    24     9    30 1   
    25    10    11 ar  
    26    10    31 1   
    27    11    32 1   
    28    13    15 2   
    29    13    19 1   
    30    16    17 1   
    31    17    18 1   
    32    17    20 2   
    33    18    33 1   
    34    18    34 1   
    35    18    35 1   
    36    19    20 1   
    37    21    22 1   
    38    21    23 1   
    39    21    36 1   
    40    22    37 1   
    41    22    38 1   
    42    23    24 1   
    43    23    39 1   
    44    23    40 1   
    45    24    41 1   
@<TRIPOS>SUBSTRUCTURE
     1 5YF         1 TEMP              0 ****  ****    0 ROOT
