@<TRIPOS>MOLECULE
5YI
   77    78     1     0     0
SMALL
bcc


@<TRIPOS>ATOM
      1 C12         0.2040    0.1400   -0.7420 c3        1 5YI     -0.043200
      2 C13         1.5580   -0.2400   -0.1270 c3        1 5YI      0.009200
      3 C14         1.8710    0.7140    1.0310 c3        1 5YI     -0.065400
      4 C15         2.1840   -2.4450    2.7250 c2        1 5YI     -0.236100
      5 C16         1.8830   -2.0570    1.5240 c1        1 5YI     -0.019800
      6 C21         0.0980   -3.5770   -0.3760 c3        1 5YI     -0.084100
      7 C24         3.1430   -3.3810   -3.6710 c3        1 5YI      0.157800
      8 C29         5.6630   -3.5750   -3.3450 c3        1 5YI     -0.092100
      9 C27         4.4600   -2.6700   -3.3460 c3        1 5YI     -0.109400
     10 C26         3.2150   -4.1880   -4.9760 c3        1 5YI     -0.109400
     11 C28         3.5880   -3.3670   -6.1810 c3        1 5YI     -0.092100
     12 O03         2.0970   -2.4080   -3.7740 oh        1 5YI     -0.612800
     13 S22         2.7740   -3.7200   -0.8920 ss        1 5YI     -0.307200
     14 C20         1.2860   -2.7220   -0.7380 c3        1 5YI      0.063600
     15 C17         1.5810   -1.6880    0.3020 c2        1 5YI     -0.107500
     16 C18         2.6460   -0.0390   -1.1850 c3        1 5YI     -0.097100
     17 C11        -0.8300    0.5300    0.2440 c2        1 5YI     -0.161200
     18 C09        -0.5750    0.8440    1.5160 c2        1 5YI     -0.166200
     19 C08         0.7920    0.7740    2.1040 c3        1 5YI      0.005700
     20 C07         1.0120    1.9000    3.0610 c2        1 5YI     -0.157300
     21 C06         2.1080    2.5940    3.1700 c1        1 5YI     -0.044800
     22 C05         3.1940    3.3080    3.3060 c2        1 5YI     -0.136500
     23 C10         3.4260    4.5640    2.5360 c3        1 5YI     -0.066200
     24 C01         3.8870    5.7200    3.4210 c3        1 5YI      0.176600
     25 O01         2.8010    6.3030    4.1270 oh        1 5YI     -0.601300
     26 C04         4.3070    2.9010    4.2100 c3        1 5YI     -0.066200
     27 C03         4.6930    4.0510    5.1420 c3        1 5YI      0.176600
     28 O02         5.8470    3.7070    5.9030 oh        1 5YI     -0.601300
     29 C02         4.9940    5.3140    4.3710 cx        1 5YI     -0.197000
     30 C30         6.4130    5.6510    3.9800 cx        1 5YI     -0.105400
     31 C31         5.7490    6.4250    5.0860 cx        1 5YI      0.116100
     32 O04         5.4280    7.7590    4.8330 oh        1 5YI     -0.579800
     33 H1         -0.1850   -0.7090   -1.3650 hc        1 5YI      0.054700
     34 H2          0.3630    1.0130   -1.4360 hc        1 5YI      0.054700
     35 H3          2.8410    0.4100    1.5050 hc        1 5YI      0.051700
     36 H4          2.0090    1.7440    0.6020 hc        1 5YI      0.051700
     37 H5          1.4230   -2.5820    3.5060 ha        1 5YI      0.130500
     38 H6          3.2190   -2.6620    3.0290 ha        1 5YI      0.130500
     39 H8          0.2570   -4.0820    0.6080 hc        1 5YI      0.043033
     40 H9         -0.8220   -2.9450   -0.3060 hc        1 5YI      0.043033
     41 H10        -0.0670   -4.3590   -1.1570 hc        1 5YI      0.043033
     42 H11         1.6730   -4.6840   -2.7750 h1        1 5YI      0.079200
     43 H12         3.4000   -5.2100   -2.5450 h1        1 5YI      0.079200
     44 H13         4.3430   -2.1920   -2.3330 hc        1 5YI      0.054200
     45 H14         5.8750   -3.9640   -4.3700 hc        1 5YI      0.036200
     46 H15         5.5090   -4.4440   -2.6600 hc        1 5YI      0.036200
     47 H16         6.5600   -3.0080   -2.9940 hc        1 5YI      0.036200
     48 H17         4.6140   -1.8440   -4.0910 hc        1 5YI      0.054200
     49 H18         4.5980   -2.9070   -6.0560 hc        1 5YI      0.036200
     50 H19         2.2090   -4.6570   -5.1470 hc        1 5YI      0.054200
     51 H20         3.9580   -5.0170   -4.8400 hc        1 5YI      0.054200
     52 H21         2.8450   -2.5510   -6.3570 hc        1 5YI      0.036200
     53 H22         3.6090   -4.0160   -7.0910 hc        1 5YI      0.036200
     54 H23         2.3680   -1.7710   -4.4450 ho        1 5YI      0.404000
     55 H24         1.1030   -2.2410   -1.7380 h1        1 5YI      0.101700
     56 H26         2.4310   -0.6490   -2.0970 hc        1 5YI      0.042700
     57 H27         3.6380   -0.3480   -0.7770 hc        1 5YI      0.042700
     58 H28         2.6980    1.0380   -1.4810 hc        1 5YI      0.042700
     59 H29         2.0460    3.3750   -1.2280 ha        1 5YI      0.001000
     60 H30         1.4940    3.0460   -1.4430 ha        1 5YI      0.001000
     61 H31        -1.8580    0.5680   -0.1520 ha        1 5YI      0.121000
     62 H32        -1.3790    1.1450    2.2050 ha        1 5YI      0.122000
     63 H33         0.8440   -0.1830    2.7130 hc        1 5YI      0.075700
     64 H34         0.1540    2.1180    3.7250 ha        1 5YI      0.137000
     65 H35         2.4920    4.8780    1.9990 hc        1 5YI      0.063200
     66 H36         4.2200    4.3680    1.7660 hc        1 5YI      0.063200
     67 H37         4.2510    6.5670    2.7650 h1        1 5YI      0.060200
     68 H38         2.3820    5.6040    4.6440 ho        1 5YI      0.405000
     69 H39         3.8410    4.2600    5.8530 h1        1 5YI      0.060200
     70 H40         5.1990    2.6160    3.5910 hc        1 5YI      0.063200
     71 H41         4.0200    2.0080    4.8240 hc        1 5YI      0.063200
     72 H42         5.6440    2.8750    6.3470 ho        1 5YI      0.405000
     73 H43         7.2130    4.9380    4.2520 hc        1 5YI      0.085700
     74 H44         6.5880    6.1470    3.0090 hc        1 5YI      0.085700
     75 H45         6.0690    6.2720    6.1370 h1        1 5YI      0.098700
     76 H46         4.4610    7.8200    4.8360 ho        1 5YI      0.423000
     77 C23         2.7090   -4.3300   -2.5480 c3        1 5YI     -0.009300
@<TRIPOS>BOND
     1    1    2 1   
     2    1   17 1   
     3    1   33 1   
     4    1   34 1   
     5    2    3 1   
     6    2   15 1   
     7    2   16 1   
     8    3   19 1   
     9    3   35 1   
    10    3   36 1   
    11    4    5 2   
    12    4   37 1   
    13    4   38 1   
    14    5   15 2   
    15    6   14 1   
    16    6   39 1   
    17    6   40 1   
    18    6   41 1   
    19    7    9 1   
    20    7   10 1   
    21    7   12 1   
    22    7   77 1   
    23    8    9 1   
    24    8   45 1   
    25    8   46 1   
    26    8   47 1   
    27    9   44 1   
    28    9   48 1   
    29   10   11 1   
    30   10   50 1   
    31   10   51 1   
    32   11   49 1   
    33   11   52 1   
    34   11   53 1   
    35   12   54 1   
    36   13   14 1   
    37   13   77 1   
    38   14   15 1   
    39   14   55 1   
    40   16   56 1   
    41   16   57 1   
    42   16   58 1   
    43   17   18 2   
    44   17   61 1   
    45   18   19 1   
    46   18   62 1   
    47   19   20 1   
    48   19   63 1   
    49   20   21 2   
    50   20   64 1   
    51   21   22 2   
    52   22   23 1   
    53   22   26 1   
    54   23   24 1   
    55   23   65 1   
    56   23   66 1   
    57   24   25 1   
    58   24   29 1   
    59   24   67 1   
    60   25   68 1   
    61   26   27 1   
    62   26   70 1   
    63   26   71 1   
    64   27   28 1   
    65   27   29 1   
    66   27   69 1   
    67   28   72 1   
    68   29   30 1   
    69   29   31 1   
    70   30   31 1   
    71   30   73 1   
    72   30   74 1   
    73   31   32 1   
    74   31   75 1   
    75   32   76 1   
    76   42   77 1   
    77   43   77 1   
    78   59   60 1   
@<TRIPOS>SUBSTRUCTURE
     1 5YI         1 TEMP              0 ****  ****    0 ROOT
