@<TRIPOS>MOLECULE
5YL
   51    51     1     0     0
SMALL
bcc


@<TRIPOS>ATOM
      1 O3P         0.5480    0.4520    0.1310 o         1 5YL     -0.876500
      2 P           1.8520   -0.0850   -0.3310 p5        1 5YL      1.345600
      3 O1P         2.9170   -0.4900    0.6230 o         1 5YL     -0.876500
      4 O2P         1.5690   -1.5300   -1.0860 oh        1 5YL     -0.802400
      5 C17         2.4110    0.8640   -1.6200 c3        1 5YL     -0.343600
      6 C16         3.9060    0.9940   -1.6310 c3        1 5YL     -0.056400
      7 C15         4.3640    2.3450   -2.1470 c3        1 5YL     -0.075400
      8 C14         5.8740    2.4390   -2.2180 c3        1 5YL     -0.078400
      9 C13         6.3230    3.8270   -2.6450 c3        1 5YL      0.001800
     10 C5          7.7870    4.0240   -2.4950 cc        1 5YL     -0.386400
     11 C4          8.2260    4.6670   -1.2710 c         1 5YL      0.737700
     12 O4          7.5000    5.1530   -0.3800 o         1 5YL     -0.660500
     13 N3          9.6230    4.7840   -1.0560 n         1 5YL     -0.593500
     14 C2         10.5570    4.3460   -1.9900 c         1 5YL      0.812500
     15 O2         11.7940    4.4480   -1.7860 o         1 5YL     -0.707500
     16 N1         10.0950    3.7980   -3.1930 n         1 5YL     -0.486100
     17 C6          8.7200    3.6100   -3.4580 cd        1 5YL      0.343600
     18 N7          8.3610    2.9640   -4.6260 nh        1 5YL     -0.703000
     19 C8          9.2700    2.8570   -5.7430 c3        1 5YL      0.102800
     20 C9          8.5210    2.5860   -7.1050 c3        1 5YL      0.405800
     21 O9          7.4120    3.2880   -7.2320 o         1 5YL     -0.879500
     22 C10         8.2510    1.0430   -7.1950 c3        1 5YL      0.027100
     23 O10         9.4950    0.3610   -7.0980 oh        1 5YL     -0.609800
     24 C11         7.5730    0.7230   -8.5360 c3        1 5YL      0.112100
     25 O11         6.2350    1.1870   -8.5680 oh        1 5YL     -0.666800
     26 C12         7.5040   -0.7870   -8.7930 c3        1 5YL      0.123400
     27 O12         6.7620   -1.0970   -9.9570 oh        1 5YL     -0.628800
     28 H171        2.0590    0.4330   -2.5890 hc        1 5YL      0.065200
     29 H172        1.9380    1.8750   -1.5460 hc        1 5YL      0.065200
     30 H161        4.3700    0.2010   -2.2810 hc        1 5YL      0.050200
     31 H162        4.2950    0.8320   -0.5870 hc        1 5YL      0.050200
     32 H151        3.9290    2.5250   -3.1650 hc        1 5YL      0.029200
     33 H152        3.9710    3.1520   -1.4730 hc        1 5YL      0.029200
     34 H141        6.3070    2.2020   -1.2110 hc        1 5YL      0.039700
     35 H142        6.2680    1.6770   -2.9400 hc        1 5YL      0.039700
     36 H131        5.7950    4.5880   -2.0050 hc        1 5YL      0.047700
     37 H132        5.9990    4.0190   -3.7030 hc        1 5YL      0.047700
     38 HN3         9.9630    5.1870   -0.2140 hn        1 5YL      0.333500
     39 HN1        10.7870    3.4800   -3.8360 hn        1 5YL      0.348500
     40 HN7         7.3990    3.0720   -4.9070 hn        1 5YL      0.472800
     41 H81         9.9970    2.0250   -5.5380 h1        1 5YL      0.021200
     42 H82         9.8460    3.8150   -5.8880 h1        1 5YL      0.021200
     43 H91         9.3120    2.8070   -7.8940 h1        1 5YL     -0.059300
     44 HO9         2.0920   -2.2220   -0.7000 ho        1 5YL      0.415000
     45 H101        7.5720    0.7380   -6.3550 h1        1 5YL      0.039700
     46 H10O        9.2850   -0.5650   -6.9360 ho        1 5YL      0.371000
     47 H111        8.1480    1.2160   -9.3700 h1        1 5YL      0.035700
     48 H11O        6.2320    2.0810   -8.1700 ho        1 5YL      0.476000
     49 H121        7.0420   -1.3050   -7.9110 h1        1 5YL      0.031200
     50 H122        8.5320   -1.1960   -8.9800 h1        1 5YL      0.031200
     51 H12O        5.9750   -0.5360   -9.9440 ho        1 5YL      0.420000
@<TRIPOS>BOND
     1    1    2 1   
     2    2    3 1   
     3    2    4 1   
     4    2    5 1   
     5    4   44 1   
     6    5    6 1   
     7    5   28 1   
     8    5   29 1   
     9    6    7 1   
    10    6   30 1   
    11    6   31 1   
    12    7    8 1   
    13    7   32 1   
    14    7   33 1   
    15    8    9 1   
    16    8   34 1   
    17    8   35 1   
    18    9   10 1   
    19    9   36 1   
    20    9   37 1   
    21   10   11 1   
    22   10   17 2   
    23   11   12 2   
    24   11   13 1   
    25   13   14 1   
    26   13   38 1   
    27   14   15 2   
    28   14   16 1   
    29   16   17 1   
    30   16   39 1   
    31   17   18 1   
    32   18   19 1   
    33   18   40 1   
    34   19   20 1   
    35   19   41 1   
    36   19   42 1   
    37   20   21 1   
    38   20   22 1   
    39   20   43 1   
    40   22   23 1   
    41   22   24 1   
    42   22   45 1   
    43   23   46 1   
    44   24   25 1   
    45   24   26 1   
    46   24   47 1   
    47   25   48 1   
    48   26   27 1   
    49   26   49 1   
    50   26   50 1   
    51   27   51 1   
@<TRIPOS>SUBSTRUCTURE
     1 5YL         1 TEMP              0 ****  ****    0 ROOT
