@<TRIPOS>MOLECULE
molecule
   39    41     1     0     0
SMALL
bcc


@<TRIPOS>ATOM
      1 C17          0.0000     0.0000     0.0000 c3         1 5Z5       0.102300
      2 N3           1.4650     0.0000     0.0000 ns         1 5Z5      -0.588900
      3 C16          2.1400     0.0000     1.1670 c          1 5Z5       0.702700
      4 O2           1.5310     0.0000     2.2200 o          1 5Z5      -0.599100
      5 C12          3.6130    -0.0010     1.1670 cc         1 5Z5      -0.242600
      6 C11          4.4510     1.1350     1.1610 cc         1 5Z5      -0.059300
      7 C14          4.0100     2.5770     1.1590 c3         1 5Z5      -0.027800
      8 C13          4.4340    -1.1140     1.1670 cd         1 5Z5      -0.037600
      9 C15          3.9690    -2.5480     1.1660 c3         1 5Z5      -0.029800
     10 N2           5.7140    -0.7060     1.1670 na         1 5Z5      -0.097100
     11 C10          5.7520     0.6730     1.1680 cd         1 5Z5      -0.158100
     12 C9           6.9170     1.4700     1.1670 cf         1 5Z5       0.070800
     13 C7           8.0480     1.0410     1.8310 cc         1 5Z5      -0.206400
     14 C5           9.3930     1.6580     1.8110 ca         1 5Z5      -0.090800
     15 C4           9.9160     2.7850     1.1850 ca         1 5Z5      -0.075000
     16 C1          11.2430     3.1180     1.3700 ca         1 5Z5       0.003400
     17 Cl1         11.9040     4.5180     0.5860 cl         1 5Z5      -0.104400
     18 C2          12.0490     2.3340     2.1820 ca         1 5Z5      -0.091000
     19 C3          11.5370     1.2180     2.8120 ca         1 5Z5      -0.146000
     20 C6          10.2030     0.8680     2.6380 ca         1 5Z5       0.050600
     21 N1           9.4480    -0.1850     3.1440 ns         1 5Z5      -0.448100
     22 C8           8.1800    -0.1330     2.7050 c          1 5Z5       0.716700
     23 O1           7.2940    -0.9220     2.9830 o          1 5Z5      -0.635500
     24 H171        -0.3610     0.8220     0.6070 h1         1 5Z5       0.040367
     25 H172        -0.3610     0.1150    -1.0150 h1         1 5Z5       0.040367
     26 H173        -0.3610    -0.9360     0.4080 h1         1 5Z5       0.040367
     27 H3           1.9650     0.0100    -0.8670 hn         1 5Z5       0.314500
     28 H141         2.9970     2.6450     1.5370 hc         1 5Z5       0.047033
     29 H142         4.6710     3.1580     1.7910 hc         1 5Z5       0.047033
     30 H143         4.0450     2.9640     0.1480 hc         1 5Z5       0.047033
     31 H151         3.4770    -2.7670     0.2260 hc         1 5Z5       0.055367
     32 H152         4.8220    -3.2040     1.2880 hc         1 5Z5       0.055367
     33 H153         3.2740    -2.7030     1.9820 hc         1 5Z5       0.055367
     34 H2           6.5140    -1.3080     1.1690 hn         1 5Z5       0.320700
     35 H9           6.9300     2.4080     0.6250 ha         1 5Z5       0.151000
     36 H4           9.3090     3.3460     0.4840 ha         1 5Z5       0.146000
     37 HA          13.0890     2.6010     2.3230 ha         1 5Z5       0.149000
     38 HB          12.1770     0.6130     3.4440 ha         1 5Z5       0.139000
     39 H1           9.8050    -0.8910     3.7580 hn         1 5Z5       0.342500
@<TRIPOS>BOND
     1     1     2 1
     2     1    24 1
     3     1    25 1
     4     1    26 1
     5     2     3 1
     6     2    27 1
     7     3     4 2
     8     3     5 1
     9     5     6 1
    10     5     8 2
    11     6     7 1
    12     6    11 2
    13     7    28 1
    14     7    29 1
    15     7    30 1
    16     8     9 1
    17     8    10 1
    18     9    31 1
    19     9    32 1
    20     9    33 1
    21    10    11 1
    22    10    34 1
    23    11    12 1
    24    12    13 2
    25    12    35 1
    26    13    14 1
    27    13    22 1
    28    14    15 ar
    29    14    20 ar
    30    15    16 ar
    31    15    36 1
    32    16    17 1
    33    16    18 ar
    34    18    19 ar
    35    18    37 1
    36    19    20 ar
    37    19    38 1
    38    20    21 1
    39    21    22 1
    40    21    39 1
    41    22    23 2
@<TRIPOS>SUBSTRUCTURE
     1 5Z5         1 TEMP              0 ****  ****    0 ROOT
