@<TRIPOS>MOLECULE
molecule
   18    18     1     0     0
SMALL
bcc


@<TRIPOS>ATOM
      1 C1           0.0000     0.0000     0.0000 c3         1 5ZE      -0.145400
      2 C2           1.5070     0.0000     0.0000 ca         1 5ZE       0.474600
      3 C3           2.2080     0.0000     1.1960 ca         1 5ZE      -0.393600
      4 C4           3.5930    -0.0010     1.1520 ca         1 5ZE       0.474600
      5 C5           4.3970    -0.0020     2.4270 c3         1 5ZE      -0.145400
      6 N6           4.2010     0.0000    -0.0230 nb         1 5ZE      -0.756000
      7 C7           3.5020     0.0000    -1.1480 ca         1 5ZE       0.937900
      8 N8           4.1700     0.0000    -2.3600 nv         1 5ZE      -1.060500
      9 N9           2.1770    -0.0050    -1.1400 nb         1 5ZE      -0.756000
     10 H1          -0.3610    -0.1260    -1.0140 hc         1 5ZE       0.056033
     11 H2          -0.3610     0.9410     0.3970 hc         1 5ZE       0.056033
     12 H3          -0.3610    -0.8150     0.6160 hc         1 5ZE       0.056033
     13 H4           1.6960     0.2220     2.1240 ha         1 5ZE       0.144000
     14 H5           5.4460    -0.1320     2.1920 hc         1 5ZE       0.056033
     15 H6           4.2560     0.9400     2.9430 hc         1 5ZE       0.056033
     16 H7           4.0660    -0.8150     3.0620 hc         1 5ZE       0.056033
     17 H8           4.4160     0.8670    -2.7960 hn         1 5ZE       0.444300
     18 H9           4.4090    -0.8670    -2.8000 hn         1 5ZE       0.444300
@<TRIPOS>BOND
     1     5     4 1   
     2     4     3 ar  
     3     4     6 ar  
     4     3     2 ar  
     5     6     7 ar  
     6     2     1 1   
     7     2     9 ar  
     8     7     9 ar  
     9     7     8 1   
    10     1    10 1   
    11     1    11 1   
    12     1    12 1   
    13     3    13 1   
    14     5    14 1   
    15     5    15 1   
    16     5    16 1   
    17     8    17 1   
    18     8    18 1   
@<TRIPOS>SUBSTRUCTURE
     1 5ZE         1 TEMP              0 ****  ****    0 ROOT
