@<TRIPOS>MOLECULE
molecule
   56    60     1     0     0
SMALL
bcc


@<TRIPOS>ATOM
      1 OAA          0.0000     0.0000     0.0000 o          1 5ZI      -0.598100
      2 CAB          1.2130     0.0000     0.0000 c          1 5ZI       0.655100
      3 CAC          1.9670     0.0000     1.3040 c3         1 5ZI      -0.141400
      4 CAD          0.9730     0.0010     2.4670 c3         1 5ZI      -0.102700
      5 CAE          1.7270     0.0010     3.7730 cc         1 5ZI       0.496900
      6 NAF          3.0240     0.0000     3.7340 nd         1 5ZI      -0.663100
      7 CAG          3.7700    -0.0000     4.8670 ca         1 5ZI       0.196400
      8 CAH          3.1140     0.0000     6.1190 ca         1 5ZI      -0.206600
      9 CAI          3.8580    -0.0000     7.2970 ca         1 5ZI      -0.050000
     10 CAJ          5.2340    -0.0000     7.2310 ca         1 5ZI      -0.154000
     11 CAK          5.8830    -0.0000     6.0020 ca         1 5ZI      -0.091000
     12 CAL          5.1670    -0.0010     4.8260 ca         1 5ZI      -0.124000
     13 CAM          1.6440     0.0010     6.1260 c          1 5ZI       0.707100
     14 OAN          1.0180     0.0020     7.1710 o          1 5ZI      -0.619500
     15 NAO          1.0140     0.0070     4.9290 ns         1 5ZI      -0.469400
     16 NAP          1.8860    -0.0070    -1.1680 ns         1 5ZI      -0.477100
     17 CAQ          1.1920    -0.1180    -2.3720 ca         1 5ZI       0.082600
     18 CAR          1.6670     0.5290    -3.5090 ca         1 5ZI      -0.158000
     19 CAS          0.9850     0.4220    -4.7000 ca         1 5ZI      -0.064000
     20 CAT         -0.1860    -0.3390    -4.7660 ca         1 5ZI      -0.170600
     21 CAU         -0.6600    -0.9880    -3.6230 ca         1 5ZI      -0.064000
     22 CAV          0.0300    -0.8800    -2.4360 ca         1 5ZI      -0.158000
     23 CAW         -0.9200    -0.4570    -6.0410 c          1 5ZI       0.676700
     24 OAX         -0.5070     0.1090    -7.0340 o          1 5ZI      -0.602100
     25 NAY         -2.0490    -1.1910    -6.1030 ns         1 5ZI      -0.451100
     26 CAZ         -2.6780    -1.3990    -7.3310 ca         1 5ZI       0.018300
     27 CBA         -4.0510    -1.7280    -7.3800 ca         1 5ZI       0.391600
     28 NBB         -4.7720    -1.8450    -6.2610 nb         1 5ZI      -0.697000
     29 CBC         -6.0470    -2.1510    -6.3000 ca         1 5ZI       0.427200
     30 CBD         -6.7110    -2.3670    -7.5060 ca         1 5ZI      -0.255300
     31 CBE         -6.0330    -2.2610    -8.6860 ca         1 5ZI      -0.078000
     32 CBF         -4.6650    -1.9340    -8.6400 ca         1 5ZI      -0.133300
     33 CBG         -3.9050    -1.8080    -9.8130 ca         1 5ZI      -0.142000
     34 CBH         -2.5820    -1.4890    -9.7360 ca         1 5ZI      -0.098000
     35 CBI         -1.9680    -1.2790    -8.5050 ca         1 5ZI      -0.146000
     36 HAC          2.5910     0.8840     1.3610 hc         1 5ZI       0.083200
     37 HACA         2.5900    -0.8850     1.3620 hc         1 5ZI       0.083200
     38 HAD          0.3510     0.8860     2.4100 hc         1 5ZI       0.080700
     39 HADA         0.3500    -0.8830     2.4100 hc         1 5ZI       0.080700
     40 HAI          3.3590    -0.0000     8.2580 ha         1 5ZI       0.155000
     41 HAJ          5.8160     0.0000     8.1450 ha         1 5ZI       0.137000
     42 HAK          6.9660    -0.0000     5.9690 ha         1 5ZI       0.135000
     43 HAL          5.6830    -0.0000     3.8740 ha         1 5ZI       0.146000
     44 HNAO         0.0140     0.0150     4.8950 hn         1 5ZI       0.340500
     45 HNAP         2.8850     0.0500    -1.1700 hn         1 5ZI       0.330500
     46 HAR          2.5750     1.1180    -3.4560 ha         1 5ZI       0.150000
     47 HAS          1.3550     0.9260    -5.5840 ha         1 5ZI       0.147000
     48 HAU         -1.5660    -1.5800    -3.6720 ha         1 5ZI       0.147000
     49 HAV         -0.3360    -1.3830    -1.5490 ha         1 5ZI       0.150000
     50 HNAY        -2.4800    -1.5150    -5.2600 hn         1 5ZI       0.345500
     51 HBC         -6.5970    -2.2380    -5.3720 h4         1 5ZI       0.021100
     52 HBD         -7.7650    -2.6180    -7.5070 ha         1 5ZI       0.137000
     53 HBE         -6.5340    -2.4260    -9.6330 ha         1 5ZI       0.141000
     54 HBG         -4.3690    -1.9680   -10.7790 ha         1 5ZI       0.132000
     55 HBH         -2.0030    -1.3890   -10.6460 ha         1 5ZI       0.135000
     56 HBI         -0.9150    -1.0260    -8.4700 ha         1 5ZI       0.181000
@<TRIPOS>BOND
     1     1     2 2   
     2     2     3 1   
     3     2    16 1   
     4     3     4 1   
     5     3    36 1   
     6     3    37 1   
     7     4     5 1   
     8     4    38 1   
     9     4    39 1   
    10     5     6 2   
    11     5    15 1   
    12     6     7 1   
    13     7     8 ar  
    14     7    12 ar  
    15     8     9 ar  
    16     8    13 1   
    17     9    10 ar  
    18     9    40 1   
    19    10    11 ar  
    20    10    41 1   
    21    11    12 ar  
    22    11    42 1   
    23    12    43 1   
    24    13    14 2   
    25    13    15 1   
    26    15    44 1   
    27    16    17 1   
    28    16    45 1   
    29    17    18 ar  
    30    17    22 ar  
    31    18    19 ar  
    32    18    46 1   
    33    19    20 ar  
    34    19    47 1   
    35    20    21 ar  
    36    20    23 1   
    37    21    22 ar  
    38    21    48 1   
    39    22    49 1   
    40    23    24 2   
    41    23    25 1   
    42    25    26 1   
    43    25    50 1   
    44    26    27 ar  
    45    26    35 ar  
    46    27    28 ar  
    47    27    32 ar  
    48    28    29 ar  
    49    29    30 ar  
    50    29    51 1   
    51    30    31 ar  
    52    30    52 1   
    53    31    32 ar  
    54    31    53 1   
    55    32    33 ar  
    56    33    34 ar  
    57    33    54 1   
    58    34    35 ar  
    59    34    55 1   
    60    35    56 1   
@<TRIPOS>SUBSTRUCTURE
     1 5ZI         1 TEMP              0 ****  ****    0 ROOT
