@<TRIPOS>MOLECULE
5ZM
   33    35     1     0     0
SMALL
bcc


@<TRIPOS>ATOM
      1 C1           0.0000     0.0000     0.0000 c3         1 5ZM       0.027900
      2 C2           1.5300     0.0000     0.0000 c3         1 5ZM      -0.092700
      3 C3           2.0600     0.0000     1.4160 ca         1 5ZM      -0.139300
      4 C4           1.9330     0.8850     2.4600 ca         1 5ZM      -0.037000
      5 C5           2.5490     0.6120     3.6800 cp         1 5ZM      -0.057000
      6 C6           3.2890    -0.5600     3.8300 ca         1 5ZM      -0.067000
      7 C7           3.4110    -1.4420     2.7790 ca         1 5ZM      -0.117000
      8 C8           2.7960    -1.1710     1.5570 ca         1 5ZM      -0.095400
      9 N9           2.7760    -1.8990     0.3680 ns         1 5ZM      -0.008100
     10 C10          2.0600    -1.2890    -0.5920 c          1 5ZM       0.616500
     11 O11          1.8750    -1.6940    -1.7200 o          1 5ZM      -0.640500
     12 C12          2.4180     1.5620     4.8120 cp         1 5ZM      -0.035000
     13 C13          3.0350     1.2860     6.0310 ca         1 5ZM      -0.077500
     14 C14          2.9110     2.1720     7.0810 ca         1 5ZM      -0.127000
     15 C15          2.1740     3.3350     6.9260 ca         1 5ZM       0.102900
     16 C16          1.5590     3.6130     5.7160 ca         1 5ZM      -0.127000
     17 C17          1.6840     2.7360     4.6570 ca         1 5ZM      -0.077500
     18 F18          2.0550     4.2000     7.9560 f          1 5ZM      -0.127900
     19 C19          2.0640     1.2070    -0.7730 c3         1 5ZM       0.027900
     20 H11C        -0.3610    -0.8230     0.6050 hc         1 5ZM       0.011867
     21 H12C        -0.3610     0.9360     0.4100 hc         1 5ZM       0.011867
     22 H13C        -0.3610    -0.1130    -1.0150 hc         1 5ZM       0.011867
     23 H191         3.1450     1.2290    -0.7060 hc         1 5ZM       0.011867
     24 H192         1.7680     1.1310    -1.8120 hc         1 5ZM       0.011867
     25 H193         1.6580     2.1170    -0.3470 hc         1 5ZM       0.011867
     26 H4           1.3570     1.7940     2.3340 ha         1 5ZM       0.115000
     27 H6           3.7690    -0.7780     4.7760 ha         1 5ZM       0.113000
     28 H7           3.9880    -2.3510     2.9030 ha         1 5ZM       0.107000
     29 H9           3.2420    -2.7760     0.2440 hn         1 5ZM       0.175500
     30 H13          3.6120     0.3770     6.1540 ha         1 5ZM       0.115000
     31 H17          1.2030     2.9540     3.7120 ha         1 5ZM       0.115000
     32 H14          3.3900     1.9580     8.0290 ha         1 5ZM       0.119000
     33 H16          0.9860     4.5250     5.5980 ha         1 5ZM       0.119000
@<TRIPOS>BOND
     1     1     2 1   
     2     1    20 1   
     3     1    21 1   
     4     1    22 1   
     5     2     3 1   
     6     2    10 1   
     7     2    19 1   
     8     3     4 ar  
     9     3     8 ar  
    10     4     5 ar  
    11     4    26 1   
    12     5     6 ar  
    13     5    12 1   
    14     6     7 ar  
    15     6    27 1   
    16     7     8 ar  
    17     7    28 1   
    18     8     9 1   
    19     9    10 1   
    20     9    29 1   
    21    10    11 2   
    22    12    13 ar  
    23    12    17 ar  
    24    13    14 ar  
    25    13    30 1   
    26    14    15 ar  
    27    14    32 1   
    28    15    16 ar  
    29    15    18 1   
    30    16    17 ar  
    31    16    33 1   
    32    17    31 1   
    33    19    23 1   
    34    19    24 1   
    35    19    25 1   
@<TRIPOS>SUBSTRUCTURE
     1 5ZM         1 TEMP              0 ****  ****    0 ROOT
