@<TRIPOS>MOLECULE
molecule
   33    35     1     0     0
SMALL
bcc


@<TRIPOS>ATOM
      1 C1           0.0000     0.0000     0.0000 c3         1 5ZM      -0.068100
      2 C2           1.5300     0.0000     0.0000 c3         1 5ZM      -0.101700
      3 C3           2.0600     0.0000     1.4160 ca         1 5ZM      -0.134300
      4 C4           1.9330     0.8850     2.4600 ca         1 5ZM      -0.066000
      5 C5           2.5490     0.6120     3.6800 cp         1 5ZM      -0.062000
      6 C6           3.2890    -0.5600     3.8300 ca         1 5ZM      -0.086000
      7 C7           3.4110    -1.4420     2.7790 ca         1 5ZM      -0.156000
      8 C8           2.7960    -1.1710     1.5570 ca         1 5ZM       0.057600
      9 N9           2.7760    -1.8990     0.3680 ns         1 5ZM      -0.460100
     10 C10          2.0600    -1.2890    -0.5920 c          1 5ZM       0.717500
     11 O11          1.8750    -1.6940    -1.7200 o          1 5ZM      -0.600500
     12 C12          2.4180     1.5620     4.8120 cp         1 5ZM      -0.043000
     13 C13          3.0350     1.2860     6.0310 ca         1 5ZM      -0.098000
     14 C14          2.9110     2.1720     7.0810 ca         1 5ZM      -0.163000
     15 C15          2.1740     3.3350     6.9260 ca         1 5ZM       0.132900
     16 C16          1.5590     3.6130     5.7160 ca         1 5ZM      -0.163000
     17 C17          1.6840     2.7360     4.6570 ca         1 5ZM      -0.098000
     18 F18          2.0550     4.2000     7.9560 f          1 5ZM      -0.139900
     19 C19          2.0640     1.2070    -0.7730 c3         1 5ZM      -0.068100
     20 H11C        -0.3610    -0.8230     0.6050 hc         1 5ZM       0.047033
     21 H12C        -0.3610     0.9360     0.4100 hc         1 5ZM       0.047033
     22 H13C        -0.3610    -0.1130    -1.0150 hc         1 5ZM       0.047033
     23 H191         3.1450     1.2290    -0.7060 hc         1 5ZM       0.047033
     24 H192         1.7680     1.1310    -1.8120 hc         1 5ZM       0.047033
     25 H193         1.6580     2.1170    -0.3470 hc         1 5ZM       0.047033
     26 H4           1.3570     1.7940     2.3340 ha         1 5ZM       0.138000
     27 H6           3.7690    -0.7780     4.7760 ha         1 5ZM       0.139000
     28 H7           3.9880    -2.3510     2.9030 ha         1 5ZM       0.135000
     29 H9           3.2420    -2.7760     0.2440 hn         1 5ZM       0.337500
     30 H13          3.6120     0.3770     6.1540 ha         1 5ZM       0.139000
     31 H17          1.2030     2.9540     3.7120 ha         1 5ZM       0.139000
     32 H14          3.3900     1.9580     8.0290 ha         1 5ZM       0.146000
     33 H16          0.9860     4.5250     5.5980 ha         1 5ZM       0.146000
@<TRIPOS>BOND
     1     1     2 1   
     2     2     3 1   
     3     2    10 1   
     4     2    19 1   
     5     3     4 ar  
     6     3     8 ar  
     7     4     5 ar  
     8     5     6 ar  
     9     5    12 1   
    10     6     7 ar  
    11     7     8 ar  
    12     8     9 1   
    13     9    10 1   
    14    10    11 2   
    15    12    13 ar  
    16    12    17 ar  
    17    13    14 ar  
    18    14    15 ar  
    19    15    16 ar  
    20    15    18 1   
    21    16    17 ar  
    22     1    20 1   
    23     1    21 1   
    24     1    22 1   
    25    19    23 1   
    26    19    24 1   
    27    19    25 1   
    28     4    26 1   
    29     6    27 1   
    30     7    28 1   
    31     9    29 1   
    32    13    30 1   
    33    17    31 1   
    34    14    32 1   
    35    16    33 1   
@<TRIPOS>SUBSTRUCTURE
     1 5ZM         1 TEMP              0 ****  ****    0 ROOT
