@<TRIPOS>MOLECULE
5ZZ
   25    25     1     0     0
SMALL
bcc


@<TRIPOS>ATOM
      1 C2           0.0000     0.0000     0.0000 c3         1 5ZZ       0.162300
      2 C4           0.6110     0.4720     2.3100 c3         1 5ZZ      -0.000500
      3 C5           1.9970     0.0000     1.8310 c3         1 5ZZ       0.094100
      4 S1           1.8410     0.0000     0.0000 ss         1 5ZZ      -0.451200
      5 C4A          0.7880     1.6720     3.2020 c          1 5ZZ       0.987600
      6 O41          1.1470     1.5090     4.4850 o          1 5ZZ      -0.898800
      7 N3          -0.2830     0.8310     1.2040 n7         1 5ZZ      -0.503200
      8 C2B         -0.5520    -1.4180     0.1680 c3         1 5ZZ      -0.018100
      9 C2A         -0.5440     0.6480    -1.2470 c          1 5ZZ       1.008600
     10 O21         -0.3530     0.0680    -2.4420 o          1 5ZZ      -0.888800
     11 O22         -1.1520     1.6890    -1.1710 o          1 5ZZ      -0.888800
     12 C5A          2.2970    -1.4070     2.3490 c3         1 5ZZ      -0.001100
     13 C5B          3.0840     0.9810     2.2780 c3         1 5ZZ      -0.001100
     14 H1           0.1510    -0.3270     2.8800 h1         1 5ZZ      -0.003300
     15 H3          -1.2340     0.6980     1.4860 hn         1 5ZZ       0.243800
     16 H5          -1.4670    -1.5190    -0.4040 hc         1 5ZZ       0.000700
     17 H6          -0.7580    -1.6030     1.2150 hc         1 5ZZ       0.000700
     18 H7           0.1780    -2.1340    -0.1890 hc         1 5ZZ       0.000700
     19 H9           3.1710    -1.8000     1.8440 hc         1 5ZZ       0.009033
     20 H10          2.4840    -1.3670     3.4160 hc         1 5ZZ       0.009033
     21 H11          1.4480    -2.0520     2.1560 hc         1 5ZZ       0.009033
     22 H12          2.8300     1.9790     1.9430 hc         1 5ZZ       0.009033
     23 H13          3.1560     0.9710     3.3590 hc         1 5ZZ       0.009033
     24 H14          4.0340     0.6860     1.8500 hc         1 5ZZ       0.009033
     25 O42          0.6060     2.7840     2.7640 o          1 5ZZ      -0.898800
@<TRIPOS>BOND
     1     1     4 1   
     2     1     7 1   
     3     1     8 1   
     4     1     9 1   
     5     2     3 1   
     6     2     5 1   
     7     2     7 1   
     8     2    14 1   
     9     3     4 1   
    10     3    12 1   
    11     3    13 1   
    12     5     6 1   
    13     5    25 1   
    14     7    15 1   
    15     8    16 1   
    16     8    17 1   
    17     8    18 1   
    18     9    10 1   
    19     9    11 1   
    20    12    19 1   
    21    12    20 1   
    22    12    21 1   
    23    13    22 1   
    24    13    23 1   
    25    13    24 1   
@<TRIPOS>SUBSTRUCTURE
     1 5ZZ         1 TEMP              0 ****  ****    0 ROOT
