@<TRIPOS>MOLECULE
molecule
   39    41     1     0     0
SMALL
bcc


@<TRIPOS>ATOM
      1 C4           0.0000     0.0000     0.0000 ca         1 201      -0.090600
      2 C2           1.3950     0.0000     0.0000 ca         1 201      -0.012000
      3 C3           2.0920     0.0000     1.2040 cp         1 201      -0.061000
      4 C1           1.3960     0.0050     2.4120 ca         1 201      -0.046000
      5 C7           0.0020    -0.0010     2.4140 ca         1 201      -0.242600
      6 C6          -0.6960    -0.0010     1.2070 ca         1 201      -0.085000
      7 C23          3.5750     0.0000     1.2040 cp         1 201      -0.048000
      8 C8           4.2710     0.7770     0.2790 ca         1 201      -0.113000
      9 C12          5.6480     0.7770     0.2780 ca         1 201      -0.115000
     10 C16          6.3470     0.0000     1.2020 cp         1 201      -0.030000
     11 C13          5.6510    -0.7760     2.1270 ca         1 201      -0.115000
     12 C9           4.2730    -0.7720     2.1320 ca         1 201      -0.113000
     13 C17          7.8300    -0.0010     1.2000 cp         1 201      -0.029000
     14 C19          8.5310    -0.0070     2.4050 ca         1 201      -0.118500
     15 C22          9.9110    -0.0070     2.3970 ca         1 201      -0.132500
     16 C21         10.5990    -0.0030     1.1970 ca         1 201      -0.127000
     17 C20          9.9080     0.0040    -0.0010 ca         1 201      -0.132500
     18 C18          8.5280    -0.0010    -0.0070 ca         1 201      -0.118500
     19 C5          -0.7390    -0.0010    -1.2800 c          1 201       0.873200
     20 C11         -0.7360    -0.0020     3.6950 c          1 201       0.510700
     21 O3          -0.1270    -0.0020     4.7470 o          1 201      -0.471100
     22 N1          -2.0840    -0.0020     3.6970 nz         1 201      -0.676400
     23 O1          -2.0860    -0.0020    -1.2790 o          1 201      -0.803300
     24 O2          -0.1320     0.0000    -2.3320 o          1 201      -0.803300
     25 H2           1.9360    -0.0010    -0.9380 ha         1 201       0.182000
     26 H1           1.9390     0.0050     3.3490 ha         1 201       0.149000
     27 H6          -1.7800    -0.0040     1.2080 ha         1 201       0.134000
     28 H8           3.7290     1.3810    -0.4390 ha         1 201       0.137500
     29 H12          6.1890     1.3800    -0.4410 ha         1 201       0.139000
     30 H13          6.1930    -1.3770     2.8470 ha         1 201       0.139000
     31 H9           3.7320    -1.3750     2.8510 ha         1 201       0.137500
     32 H19          7.9950     0.0550     3.3440 ha         1 201       0.137000
     33 H22         10.4570    -0.0120     3.3320 ha         1 201       0.131000
     34 H21         11.6820    -0.0040     1.1950 ha         1 201       0.129000
     35 H20         10.4520     0.0290    -0.9380 ha         1 201       0.131000
     36 H18          8.1930    -0.2690    -1.0010 ha         1 201       0.137000
     37 HN11        -2.4160    -0.0020     4.6410 hn         1 201       0.473133
     38 HN12        -2.4180     0.8150     3.2250 hn         1 201       0.473133
     39 H131        -2.4180    -0.8190     3.2260 hn         1 201       0.473133
@<TRIPOS>BOND
     1     1     2 ar  
     2     1     6 ar  
     3     1    19 1   
     4     2     3 ar  
     5     2    25 1   
     6     3     4 ar  
     7     3     7 1   
     8     4     5 ar  
     9     4    26 1   
    10     5     6 ar  
    11     5    20 1   
    12     6    27 1   
    13     7     8 ar  
    14     7    12 ar  
    15     8     9 ar  
    16     8    28 1   
    17     9    10 ar  
    18     9    29 1   
    19    10    11 ar  
    20    10    13 1   
    21    11    12 ar  
    22    11    30 1   
    23    12    31 1   
    24    13    14 ar  
    25    13    18 ar  
    26    14    15 ar  
    27    14    32 1   
    28    15    16 ar  
    29    15    33 1   
    30    16    17 ar  
    31    16    34 1   
    32    17    18 ar  
    33    17    35 1   
    34    18    36 1   
    35    19    23 1   
    36    19    24 1   
    37    20    21 2   
    38    20    22 1   
    39    22    37 1   
    40    22    38 1   
    41    39    22 1   
@<TRIPOS>SUBSTRUCTURE
     1 201         1 TEMP              0 ****  ****    0 ROOT
