@<TRIPOS>MOLECULE
202
    5     4     1     0     0
SMALL
bcc


@<TRIPOS>ATOM
      1 BR          0.0030    0.7480   -0.0090 br        1 202      1.065000
      2 O1          1.7320   -0.0320   -0.0260 oh        1 202     -0.345000
      3 O2         -0.5120   -0.2880    1.4030 o         1 202     -0.491000
      4 O3         -0.5620   -0.3350   -1.3660 o         1 202     -0.491000
      5 H1          1.5640   -0.9800   -0.0020 ho        1 202      0.263000
@<TRIPOS>BOND
     1    1    2 1   
     2    1    3 1   
     3    1    4 1   
     4    2    5 1   
@<TRIPOS>SUBSTRUCTURE
     1 202         1 TEMP              0 ****  ****    0 ROOT
