@<TRIPOS>MOLECULE
molecule
   16    17     1     0     0
SMALL
bcc


@<TRIPOS>ATOM
      1 O19          0.0000     0.0000     0.0000 o          1 203      -0.614500
      2 C18          1.2180     0.0000     0.0000 c          1 203       0.766100
      3 N17          1.8870     0.0000     1.1710 ns         1 203      -0.650300
      4 C13          1.9180    -0.0050    -1.2250 cc         1 203      -0.380200
      5 C14          3.2900    -0.2030    -1.3510 cd         1 203       0.628200
      6 N15          4.1060    -0.4260    -0.2400 nu         1 203      -0.825800
      7 S16          3.5350     0.1850     1.2040 s6         1 203       1.528500
      8 O20          3.7720     1.5850     1.1550 o          1 203      -0.611800
      9 O21          4.0060    -0.6960     2.2150 o          1 203      -0.611800
     10 N10          3.5940    -0.1400    -2.6400 nd         1 203      -0.715000
     11 C11          2.5050     0.0820    -3.3370 cc         1 203       0.463400
     12 N12          1.4440     0.1720    -2.5100 na         1 203      -0.237900
     13 H17          1.3840    -0.1130     2.0290 hn         1 203       0.370500
     14 H15          5.0860    -0.5870    -0.3630 hn         1 203       0.480800
     15 H11          2.4650     0.1780    -4.4160 h5         1 203       0.080100
     16 H12          0.4930     0.3370    -2.7760 hn         1 203       0.328700
@<TRIPOS>BOND
     1     1     2 2   
     2     2     3 1   
     3     2     4 1   
     4     3     7 1   
     5     3    13 1   
     6     4     5 2   
     7     4    12 1   
     8     5     6 1   
     9     5    10 1   
    10     6     7 1   
    11     6    14 1   
    12     7     8 2   
    13     7     9 2   
    14    10    11 2   
    15    11    12 1   
    16    11    15 1   
    17    12    16 1   
@<TRIPOS>SUBSTRUCTURE
     1 203         1 TEMP              0 ****  ****    0 ROOT
