@<TRIPOS>MOLECULE
molecule
   22    22     1     0     0
SMALL
bcc


@<TRIPOS>ATOM
      1 C1           0.0000     0.0000     0.0000 c3         1 204      -0.097100
      2 C2           1.5300     0.0000     0.0000 c3         1 204       0.158400
      3 O3           2.0140     0.0000     1.3690 os         1 204      -0.449900
      4 C4           3.3380    -0.0010     1.6160 c          1 204       0.661700
      5 O5           4.1280     0.0010     0.6930 o          1 204      -0.528000
      6 C6           3.8280    -0.0020     3.0020 ca         1 204      -0.415200
      7 C7           2.9350    -0.0030     4.0810 ca         1 204       0.538200
      8 N8           3.4150    -0.0050     5.3100 nb         1 204      -0.783000
      9 C9           4.7230    -0.0060     5.5350 ca         1 204       0.997900
     10 N10          5.1780    -0.0070     6.8370 nv         1 204      -1.062500
     11 N11          5.6060    -0.0030     4.5480 nb         1 204      -0.844000
     12 C12          5.2090    -0.0070     3.2820 ca         1 204       0.745600
     13 O13          6.1160    -0.0050     2.2780 oh         1 204      -0.558300
     14 H11         -0.3610    -0.0000    -1.0210 hc         1 204       0.048033
     15 H12         -0.3610    -0.8840     0.5110 hc         1 204       0.048033
     16 H13A        -0.3610     0.8850     0.5110 hc         1 204       0.048033
     17 H21          1.8910    -0.8840    -0.5110 h1         1 204       0.048700
     18 H22          1.8910     0.8850    -0.5110 h1         1 204       0.048700
     19 H7           1.8660    -0.0020     3.9090 h4         1 204       0.052100
     20 H101         5.3700    -0.8730     7.3000 hn         1 204       0.450800
     21 H102         5.3220     0.8590     7.3180 hn         1 204       0.450800
     22 H13          6.9760    -0.1600     2.6300 ho         1 204       0.442000
@<TRIPOS>BOND
     1     1     2 1
     2     1    14 1
     3     1    15 1
     4     1    16 1
     5     2     3 1
     6     2    17 1
     7     2    18 1
     8     3     4 1
     9     4     5 2
    10     4     6 1
    11     6     7 ar
    12     6    12 ar
    13     7     8 ar
    14     7    19 1
    15     8     9 ar
    16     9    10 1
    17     9    11 ar
    18    10    20 1
    19    10    21 1
    20    11    12 ar
    21    12    13 1
    22    13    22 1
@<TRIPOS>SUBSTRUCTURE
     1 204         1 TEMP              0 ****  ****    0 ROOT
