@<TRIPOS>MOLECULE
207
   36    38     1     0     0
SMALL
bcc


@<TRIPOS>ATOM
      1 N1           0.0000     0.0000     0.0000 nb         1 207      -0.701000
      2 C2           1.3290     0.0000     0.0000 ca         1 207       0.549200
      3 C3           2.0450     0.0000     1.1850 ca         1 207      -0.265300
      4 C4           1.3510    -0.0060     2.3900 ca         1 207      -0.219200
      5 C5          -0.0560    -0.0140     2.3590 ca         1 207      -0.086900
      6 C6          -0.7030    -0.0120     1.1190 ca         1 207       0.687600
      7 O6          -2.0580    -0.0180     1.0630 os         1 207      -0.385100
      8 C9          -2.4150    -0.0150    -0.3200 c3         1 207       0.185400
      9 N7          -0.4780    -0.0200     3.6490 nc         1 207      -0.471100
     10 C8           0.5500    -0.0180     4.4450 cd         1 207       0.221700
     11 N9           1.7040    -0.0100     3.7180 na         1 207       0.264700
     12 N2           2.0130     0.0070    -1.2120 nv         1 207      -0.658500
     13 C10         -3.9390    -0.0200    -0.4530 c3         1 207      -0.062700
     14 C11         -4.5050    -1.2740     0.2160 c3         1 207      -0.022400
     15 C12         -6.0290    -1.2800     0.0820 c3         1 207      -0.022900
     16 C13         -6.4110    -1.2770    -1.4000 c3         1 207      -0.025400
     17 C14         -5.8450    -0.0230    -2.0680 c3         1 207      -0.022900
     18 C15         -4.3210    -0.0170    -1.9350 c3         1 207      -0.022400
     19 H3           3.1280    -0.0000     1.1740 ha         1 207       0.118000
     20 H9C1        -2.0070    -0.8960    -0.8000 h1         1 207       0.020700
     21 H9C2        -2.0140     0.8730    -0.7940 h1         1 207       0.020700
     22 H8           0.4980    -0.0220     5.5270 h5         1 207       0.029800
     23 H9           2.6360    -0.0070     4.0840 hn         1 207       0.129700
     24 H2N1         2.2630    -0.8570    -1.6510 hn         1 207       0.275800
     25 H2N2         2.2570     0.8770    -1.6440 hn         1 207       0.275800
     26 H10         -4.3510     0.8590     0.0260 hc         1 207       0.036700
     27 H111        -4.0980    -2.1540    -0.2670 hc         1 207       0.018950
     28 H112        -4.2360    -1.2740     1.2650 hc         1 207       0.018950
     29 H121        -6.4280    -2.1690     0.5550 hc         1 207       0.012700
     30 H122        -6.4350    -0.3970     0.5600 hc         1 207       0.012700
     31 H131        -6.0000    -2.1570    -1.8800 hc         1 207       0.012200
     32 H132        -7.4900    -1.2790    -1.4930 hc         1 207       0.012200
     33 H141        -6.1150    -0.0220    -3.1170 hc         1 207       0.012700
     34 H142        -6.2520     0.8570    -1.5850 hc         1 207       0.012700
     35 H151        -3.9220     0.8720    -2.4070 hc         1 207       0.018950
     36 H152        -3.9150    -0.9000    -2.4130 hc         1 207       0.018950
@<TRIPOS>BOND
     1     1     2 ar  
     2     1     6 ar  
     3     2     3 ar  
     4     2    12 1   
     5     3     4 ar  
     6     3    19 1   
     7     4     5 ar  
     8     4    11 1   
     9     5     6 ar  
    10     5     9 1   
    11     6     7 1   
    12     7     8 1   
    13     8    13 1   
    14     8    20 1   
    15     8    21 1   
    16     9    10 2   
    17    10    11 1   
    18    10    22 1   
    19    11    23 1   
    20    12    24 1   
    21    12    25 1   
    22    13    14 1   
    23    13    18 1   
    24    13    26 1   
    25    14    15 1   
    26    14    27 1   
    27    14    28 1   
    28    15    16 1   
    29    15    29 1   
    30    15    30 1   
    31    16    17 1   
    32    16    31 1   
    33    16    32 1   
    34    17    18 1   
    35    17    33 1   
    36    17    34 1   
    37    18    35 1   
    38    18    36 1   
@<TRIPOS>SUBSTRUCTURE
     1 207         1 TEMP              0 ****  ****    0 ROOT
