@<TRIPOS>MOLECULE
208
   53    56     1     0     0
SMALL
bcc


@<TRIPOS>ATOM
      1 C30         2.0420   -2.0710    1.1620 c3        1 208     -0.096100
      2 C28         2.9060   -1.4110    0.1090 c3        1 208      0.133400
      3 O25         3.4610   -0.2410    0.7030 os        1 208     -0.455600
      4 C15         3.9940    0.6890   -0.2530 c3        1 208      0.024100
      5 C13         4.9200    0.0080   -1.3020 c         1 208      0.897600
      6 O22         6.1500    0.2840   -1.2970 o         1 208     -0.835800
      7 O20         4.3670   -0.7680   -2.1320 o         1 208     -0.835800
      8 C19         4.7420    1.7410    0.5600 c3        1 208     -0.040100
      9 C18         3.8790    2.8340    1.0870 ca        1 208     -0.066300
     10 C21         2.6440    2.5240    1.6960 ca        1 208     -0.103000
     11 C17         4.3050    4.1590    1.0060 ca        1 208     -0.098000
     12 C11         3.5120    5.1670    1.5520 ca        1 208     -0.094800
     13 C12         3.6470    6.6080    1.6450 cc        1 208     -0.181200
     14 C10         2.5270    7.0880    2.3040 cd        1 208     -0.120100
     15 C8          2.2580    4.8320    2.1830 ca        1 208     -0.068200
     16 C14         1.8240    3.5000    2.2410 ca        1 208     -0.169000
     17 N4          1.6360    6.0330    2.5920 na        1 208     -0.085400
     18 C9          0.5780    6.1200    3.5520 c3        1 208      0.028000
     19 C3          1.0050    6.3740    4.9650 cc        1 208      0.189300
     20 C7          1.7010    5.5220    5.8230 cd        1 208      0.213700
     21 C26         2.2640    4.1760    5.7240 c3        1 208     -0.146400
     22 O5          1.8590    6.1860    7.0420 os        1 208     -0.386800
     23 N2          0.7240    7.5770    5.6380 nc        1 208     -0.630000
     24 C1          1.2330    7.4430    6.8650 cd        1 208      0.521900
     25 C6          1.2850    8.3420    8.0060 ca        1 208     -0.111500
     26 C16         0.3210    9.3400    8.2230 ca        1 208      0.049400
     27 CL23       -1.0030    9.5540    7.1860 cl        1 208     -0.061400
     28 C27         0.4320   10.1900    9.3320 ca        1 208     -0.139000
     29 C31         1.4910   10.0450   10.2230 ca        1 208     -0.112000
     30 C29         2.4470    9.0500   10.0170 ca        1 208     -0.138000
     31 C24         2.3460    8.2050    8.9170 ca        1 208     -0.091000
     32 H301        2.6490   -2.3220    2.0640 hc        1 208      0.022367
     33 H302        1.2160   -1.3900    1.4760 hc        1 208      0.022367
     34 H303        1.6030   -3.0090    0.7470 hc        1 208      0.022367
     35 H281        2.3060   -1.1370   -0.7990 h1        1 208      0.051200
     36 H282        3.7430   -2.0850   -0.2160 h1        1 208      0.051200
     37 H15         3.1270    1.1510   -0.8010 h1        1 208      0.022700
     38 H191        5.2450    1.2310    1.4260 hc        1 208      0.074200
     39 H192        5.5530    2.1580   -0.0980 hc        1 208      0.074200
     40 H21         2.3360    1.4630    1.7250 ha        1 208      0.164000
     41 H17         5.2550    4.4110    0.5120 ha        1 208      0.137000
     42 H12         4.4760    7.1890    1.2530 ha        1 208      0.148000
     43 H10         2.2620    8.1100    2.5770 h4        1 208      0.160000
     44 H14         0.8600    3.2350    2.6940 ha        1 208      0.118000
     45 H91         0.0050    5.1470    3.5330 h1        1 208      0.072200
     46 H92        -0.1160    6.9490    3.2200 h1        1 208      0.072200
     47 H261        2.2320    3.8320    4.6570 hc        1 208      0.073700
     48 H262        3.3270    4.1710    6.0740 hc        1 208      0.073700
     49 H263        1.6790    3.4650    6.3600 hc        1 208      0.073700
     50 H27        -0.3230   10.9740    9.4980 ha        1 208      0.146000
     51 H31         1.5720   10.7160   11.0910 ha        1 208      0.135000
     52 H29         3.2840    8.9330   10.7220 ha        1 208      0.138000
     53 H24         3.0970    7.4170    8.7480 ha        1 208      0.156000
@<TRIPOS>BOND
     1    1    2 1
     2    1   32 1
     3    1   33 1
     4    1   34 1
     5    2    3 1
     6    2   35 1
     7    2   36 1
     8    3    4 1
     9    4    5 1
    10    4    8 1
    11    4   37 1
    12    5    6 1
    13    5    7 1
    14    8    9 1
    15    8   38 1
    16    8   39 1
    17    9   10 ar
    18    9   11 ar
    19   10   16 ar
    20   10   40 1
    21   11   12 ar
    22   11   41 1
    23   12   13 1
    24   12   15 ar
    25   13   14 2
    26   13   42 1
    27   14   17 1
    28   14   43 1
    29   15   16 ar
    30   15   17 1
    31   16   44 1
    32   17   18 1
    33   18   19 1
    34   18   45 1
    35   18   46 1
    36   19   20 2
    37   19   23 1
    38   20   21 1
    39   20   22 1
    40   21   47 1
    41   21   48 1
    42   21   49 1
    43   22   24 1
    44   23   24 2
    45   24   25 1
    46   25   26 ar
    47   25   31 ar
    48   26   27 1
    49   26   28 ar
    50   28   29 ar
    51   28   50 1
    52   29   30 ar
    53   29   51 1
    54   30   31 ar
    55   30   52 1
    56   31   53 1
@<TRIPOS>SUBSTRUCTURE
     1 208         1 TEMP              0 ****  ****    0 ROOT
