@<TRIPOS>MOLECULE
209
   23    24     1     0     0
SMALL
bcc


@<TRIPOS>ATOM
      1 N1          0.0210   -0.0320   -0.0240 n         1 209     -0.493400
      2 C2          1.4420   -0.0770   -0.0410 c         1 209      0.657000
      3 C3          2.0640   -0.0540    1.2780 cc        1 209      0.196800
      4 C4          1.2580    0.0070    2.4600 cd        1 209     -0.005000
      5 N5         -0.1260    0.0480    2.4310 n         1 209     -0.353000
      6 C6         -0.7540    0.0270    1.1530 c         1 209      0.823500
      7 N7          3.4120   -0.0850    1.6150 nc        1 209     -0.589000
      8 C8          3.4490   -0.0430    2.9790 cd        1 209      0.541400
      9 N9          2.1300    0.0140    3.5410 na        1 209     -0.309900
     10 N10         4.5720   -0.0510    3.8480 nh        1 209     -0.877500
     11 C11        -0.8990    0.1080    3.6390 c3        1 209      0.078300
     12 C15        -0.7160   -0.0500   -1.2670 c3        1 209      0.079300
     13 O19        -2.0030    0.0630    1.0980 o         1 209     -0.635500
     14 O20         2.0460   -0.1290   -1.1210 o         1 209     -0.581500
     15 HN9         1.9010    0.0510    4.5000 hn        1 209      0.319700
     16 H101        5.1000   -0.8940    3.7170 hn        1 209      0.387800
     17 H102        5.1500    0.7500    3.6650 hn        1 209      0.387800
     18 H111       -1.9940    0.1340    3.3850 h1        1 209      0.061367
     19 H112       -0.6330    1.0350    4.2160 h1        1 209      0.061367
     20 H113       -0.6890   -0.7950    4.2720 h1        1 209      0.061367
     21 H151       -1.3810   -0.9540   -1.2970 h1        1 209      0.063367
     22 H152        0.0030   -0.0780   -2.1280 h1        1 209      0.063367
     23 H153       -1.3570    0.8690   -1.3370 h1        1 209      0.063367
@<TRIPOS>BOND
     1    1    2 1
     2    1    6 1
     3    1   12 1
     4    2    3 1
     5    2   14 2
     6    3    4 2
     7    3    7 1
     8    4    5 1
     9    4    9 1
    10    5    6 1
    11    5   11 1
    12    6   13 2
    13    7    8 2
    14    8    9 1
    15    8   10 1
    16    9   15 1
    17   10   16 1
    18   10   17 1
    19   11   18 1
    20   11   19 1
    21   11   20 1
    22   12   21 1
    23   12   22 1
    24   12   23 1
@<TRIPOS>SUBSTRUCTURE
     1 209         1 TEMP              0 ****  ****    0 ROOT
