@<TRIPOS>MOLECULE
molecule
   53    56     1     0     0
SMALL
bcc


@<TRIPOS>ATOM
      1 O14          0.0000     0.0000     0.0000 o          1 20A      -0.592100
      2 C8           1.2160     0.0000     0.0000 c          1 20A       0.682700
      3 N5           1.8900     0.0000     1.1680 ns         1 20A      -0.590900
      4 C18          1.1570    -0.0010     2.4360 c3         1 20A       0.164300
      5 C22          2.1360    -0.0010     3.5820 ca         1 20A      -0.119300
      6 C24          2.5900    -1.1990     4.1030 ca         1 20A      -0.112500
      7 C26          3.4880    -1.1990     5.1540 ca         1 20A      -0.130500
      8 C4           3.9330    -0.0020     5.6830 ca         1 20A      -0.120000
      9 C27          3.4800     1.1950     5.1620 ca         1 20A      -0.130500
     10 C25          2.5850     1.1960     4.1080 ca         1 20A      -0.112500
     11 C3           1.9520    -0.0060    -1.2740 ca         1 20A      -0.335900
     12 C7           3.3480    -0.1240    -1.2880 ca         1 20A       0.501200
     13 N11          4.0220    -0.1300    -2.4140 nb         1 20A      -0.738000
     14 C13          3.4230    -0.0280    -3.5990 ca         1 20A       0.505800
     15 N10          3.8890    -0.0090    -4.8820 na         1 20A      -0.028800
     16 C17          5.2940    -0.1110    -5.2870 c3         1 20A       0.080300
     17 C21          5.6600    -1.5820    -5.4920 c3         1 20A      -0.118100
     18 N12          2.7950     0.1220    -5.7460 nc         1 20A      -0.495100
     19 C2           2.0240     0.0950    -3.6810 ca         1 20A      -0.427200
     20 C6           1.6950     0.1840    -5.0530 cd         1 20A       0.388800
     21 C1           1.2640     0.1020    -2.4950 ca         1 20A       0.311600
     22 N4          -0.1100     0.2190    -2.5310 nu         1 20A      -0.795600
     23 C9          -0.5210     1.6250    -2.4300 c3         1 20A       0.238500
     24 C15         -1.9340     1.7060    -1.8420 c3         1 20A      -0.139900
     25 C19         -2.3830     3.1700    -1.8140 c3         1 20A       0.139400
     26 O23         -2.3320     3.7080    -3.1370 os         1 20A      -0.424600
     27 C20         -1.0270     3.7030    -3.7190 c3         1 20A       0.139400
     28 C16         -0.5220     2.2610    -3.8240 c3         1 20A      -0.139900
     29 HN5          2.8900     0.0290     1.1680 hn         1 20A       0.313500
     30 H18          0.5340     0.8830     2.4930 h1         1 20A       0.058200
     31 H18A         0.5340    -0.8850     2.4920 h1         1 20A       0.058200
     32 H24          2.2410    -2.1370     3.6880 ha         1 20A       0.135000
     33 H26          3.8430    -2.1370     5.5620 ha         1 20A       0.132500
     34 H4           4.6350    -0.0020     6.5080 ha         1 20A       0.131000
     35 H27          3.8300     2.1330     5.5760 ha         1 20A       0.132500
     36 H25          2.2300     2.1340     3.6990 ha         1 20A       0.135000
     37 H7           3.8820    -0.2110    -0.3500 h4         1 20A       0.023100
     38 H17          5.4430     0.4310    -6.2130 h1         1 20A       0.069200
     39 H17A         5.9240     0.3140    -4.5140 h1         1 20A       0.069200
     40 H21          6.4700    -1.6560    -6.2070 hc         1 20A       0.049367
     41 H21A         5.9720    -2.0120    -4.5470 hc         1 20A       0.049367
     42 H21B         4.7970    -2.1200    -5.8660 hc         1 20A       0.049367
     43 H6           0.6960     0.2870    -5.4590 h4         1 20A       0.062800
     44 HN4         -0.6530    -0.4230    -3.0730 hn         1 20A       0.434800
     45 H9           0.1670     2.1630    -1.7890 h1         1 20A       0.066700
     46 H15         -1.9280     1.3110    -0.8330 hc         1 20A       0.060200
     47 H15A        -2.6150     1.1310    -2.4580 hc         1 20A       0.060200
     48 H19         -1.7220     3.7370    -1.1700 h1         1 20A       0.046950
     49 H19A        -3.3980     3.2280    -1.4410 h1         1 20A       0.046950
     50 H20         -0.3530     4.2760    -3.0950 h1         1 20A       0.046950
     51 H20A        -1.0730     4.1410    -4.7090 h1         1 20A       0.046950
     52 H16          0.4850     2.2600    -4.2220 hc         1 20A       0.060200
     53 H16A        -1.1760     1.6960    -4.4770 hc         1 20A       0.060200
@<TRIPOS>BOND
     1     1     2 2   
     2    11     2 1   
     3     2     3 1   
     4     3     4 1   
     5     3    29 1   
     6     5     4 1   
     7     4    30 1   
     8     4    31 1   
     9     6     5 ar  
    10     5    10 ar  
    11     7     6 ar  
    12     6    32 1   
    13     7     8 ar  
    14     7    33 1   
    15     8     9 ar  
    16     8    34 1   
    17     9    10 ar  
    18     9    35 1   
    19    10    36 1   
    20    21    11 ar  
    21    11    12 ar  
    22    13    12 ar  
    23    12    37 1   
    24    14    13 ar  
    25    15    14 1   
    26    19    14 ar  
    27    18    15 1   
    28    15    16 1   
    29    16    17 1   
    30    16    38 1   
    31    16    39 1   
    32    17    40 1   
    33    17    41 1   
    34    17    42 1   
    35    18    20 2   
    36    20    19 1   
    37    19    21 ar  
    38    20    43 1   
    39    22    21 1   
    40    23    22 1   
    41    22    44 1   
    42    28    23 1   
    43    23    24 1   
    44    23    45 1   
    45    25    24 1   
    46    24    46 1   
    47    24    47 1   
    48    26    25 1   
    49    25    48 1   
    50    25    49 1   
    51    27    26 1   
    52    27    28 1   
    53    27    50 1   
    54    27    51 1   
    55    28    52 1   
    56    28    53 1   
@<TRIPOS>SUBSTRUCTURE
     1 20A         1 TEMP              0 ****  ****    0 ROOT
