@<TRIPOS>MOLECULE
molecule
   28    30     1     0     0
SMALL
bcc


@<TRIPOS>ATOM
      1 CAM          0.0000     0.0000     0.0000 ca         1 20B      -0.120000
      2 CAL          1.3840     0.0000     0.0000 ca         1 20B       0.101100
      3 OAR          2.0630    -0.0000    -1.1770 oh         1 20B      -0.518100
      4 CAP          2.0800     0.0000     1.2010 ca         1 20B      -0.132000
      5 CAO          1.3950     0.0000     2.4040 ca         1 20B      -0.119000
      6 CAN          0.0160     0.0000     2.4160 ca         1 20B      -0.104000
      7 CAK         -0.6930     0.0060     1.2120 ca         1 20B      -0.057800
      8 CAI         -2.1690     0.0070     1.2210 cc         1 20B       0.209900
      9 OAJ         -2.8210     0.0010     0.0480 os         1 20B      -0.215200
     10 CAF         -4.1690     0.0010    -0.0280 ca         1 20B       0.156100
     11 CAA         -4.8130    -0.0060    -1.2600 ca         1 20B      -0.156000
     12 CAB         -6.1900    -0.0060    -1.3150 ca         1 20B      -0.076000
     13 CAC         -6.9460     0.0000    -0.1510 ca         1 20B      -0.165000
     14 CAD         -6.3260     0.0060     1.0790 ca         1 20B      -0.040000
     15 CAE         -4.9340     0.0070     1.1490 ca         1 20B      -0.227600
     16 CAG         -4.2300     0.0140     2.4460 c          1 20B       0.585900
     17 OAQ         -4.8440     0.0190     3.5010 o          1 20B      -0.549100
     18 CAH         -2.8160     0.0070     2.4180 cd         1 20B      -0.340200
     19 H1          -0.5440     0.0050    -0.9370 ha         1 20B       0.157000
     20 H2           2.1800    -0.8880    -1.4730 ho         1 20B       0.422000
     21 H3           3.1630     0.0000     1.1970 ha         1 20B       0.145000
     22 H4           1.9440    -0.0020     3.3380 ha         1 20B       0.142000
     23 H5          -0.5180     0.0020     3.3590 ha         1 20B       0.146000
     24 H6          -4.2340    -0.0110    -2.1750 ha         1 20B       0.147000
     25 H7          -6.6880    -0.0100    -2.2770 ha         1 20B       0.139000
     26 H8          -8.0280     0.0000    -0.2110 ha         1 20B       0.139000
     27 H9          -6.9170     0.0110     1.9870 ha         1 20B       0.159000
     28 H10         -2.2560    -0.1240     3.3360 ha         1 20B       0.169000
@<TRIPOS>BOND
     1    13    14 ar
     2    13    12 ar
     3    14    15 ar
     4    12    11 ar
     5    17    16 2
     6    15    16 1
     7    15    10 ar
     8    11    10 ar
     9    16    18 1
    10    10     9 1
    11    18     8 2
    12     9     8 1
    13     8     7 1
    14     7     1 ar
    15     7     6 ar
    16     1     2 ar
    17     6     5 ar
    18     2     3 1
    19     2     4 ar
    20     5     4 ar
    21     1    19 1
    22     3    20 1
    23     4    21 1
    24     5    22 1
    25     6    23 1
    26    11    24 1
    27    12    25 1
    28    13    26 1
    29    14    27 1
    30    18    28 1
@<TRIPOS>SUBSTRUCTURE
     1 20B         1 TEMP              0 ****  ****    0 ROOT
