@<TRIPOS>MOLECULE
20B
   28    30     1     0     0
SMALL
bcc


@<TRIPOS>ATOM
      1 CAM        -0.1040   -0.4270    0.0350 ca        1 20B     -0.116000
      2 CAL         1.2980   -0.4050   -0.0350 ca        1 20B      0.119100
      3 OAR         1.8530   -0.7940   -1.2330 oh        1 20B     -0.493100
      4 CAP         2.0710   -0.0070    1.0650 ca        1 20B     -0.194000
      5 CAO         1.4290    0.3740    2.2420 ca        1 20B     -0.096000
      6 CAN         0.0390    0.3580    2.3290 ca        1 20B     -0.135000
      7 CAK        -0.7290   -0.0480    1.2270 ca        1 20B     -0.042800
      8 CAI        -2.1900   -0.0810    1.3350 cc        1 20B      0.193900
      9 OAJ        -2.7920    0.1390    0.1030 os        1 20B     -0.222200
     10 CAF        -4.1780    0.1240    0.0690 ca        1 20B      0.142100
     11 CAA        -4.7480    0.3470   -1.1980 ca        1 20B     -0.158000
     12 CAB        -6.1320    0.3480   -1.3130 ca        1 20B     -0.078000
     13 CAC        -6.9430    0.1310   -0.1930 ca        1 20B     -0.166000
     14 CAD        -6.3720   -0.0890    1.0540 ca        1 20B     -0.047000
     15 CAE        -4.9760   -0.0950    1.2020 ca        1 20B     -0.215600
     16 CAG        -4.3430   -0.3250    2.5100 c         1 20B      0.589900
     17 OAQ        -4.9870   -0.5190    3.5510 o         1 20B     -0.545100
     18 CAH        -2.8820   -0.3050    2.4750 cd        1 20B     -0.314200
     19 H1         -0.6930   -0.7380   -0.8410 ha        1 20B      0.166000
     20 H2          2.8160   -0.7350   -1.1490 ho        1 20B      0.422000
     21 H3          3.1680    0.0050    0.9990 ha        1 20B      0.138000
     22 H4          2.0270    0.6920    3.1090 ha        1 20B      0.140000
     23 H5         -0.4560    0.6700    3.2610 ha        1 20B      0.145000
     24 H6         -4.0960    0.5170   -2.0660 ha        1 20B      0.155000
     25 H7         -6.5940    0.5210   -2.2970 ha        1 20B      0.140000
     26 H8         -8.0380    0.1340   -0.3040 ha        1 20B      0.142000
     27 H9         -6.9960   -0.2610    1.9460 ha        1 20B      0.161000
     28 H10        -2.3620   -0.4920    3.4270 ha        1 20B      0.169000
@<TRIPOS>BOND
     1    1    2 ar  
     2    1    7 ar  
     3    1   19 1   
     4    2    3 1   
     5    2    4 ar  
     6    3   20 1   
     7    4    5 ar  
     8    4   21 1   
     9    5    6 ar  
    10    5   22 1   
    11    6    7 ar  
    12    6   23 1   
    13    7    8 1   
    14    8    9 1   
    15    8   18 2   
    16    9   10 1   
    17   10   11 ar  
    18   10   15 ar  
    19   11   12 ar  
    20   11   24 1   
    21   12   13 ar  
    22   12   25 1   
    23   13   14 ar  
    24   13   26 1   
    25   14   15 ar  
    26   14   27 1   
    27   15   16 1   
    28   16   17 2   
    29   16   18 1   
    30   18   28 1   
@<TRIPOS>SUBSTRUCTURE
     1 20B         1 TEMP              0 ****  ****    0 ROOT
