@<TRIPOS>MOLECULE
molecule
   32    34     1     0     0
SMALL
bcc


@<TRIPOS>ATOM
      1 C1           0.0000     0.0000     0.0000 ca         1 20C      -0.017300
      2 C2           1.3860     0.0000     0.0000 ca         1 20C      -0.125000
      3 C3           2.0870     0.0000     1.1910 ca         1 20C      -0.119000
      4 C4           1.4140     0.0010     2.4020 ca         1 20C      -0.074000
      5 C5           0.0290     0.0020     2.4190 ca         1 20C      -0.143600
      6 C6          -0.6870     0.0020     1.2040 ca         1 20C      -0.155600
      7 C7          -0.9910     0.0040     3.4890 c          1 20C       0.720100
      8 N8          -2.2100     0.0050     2.9190 n          1 20C      -0.357600
      9 C9          -2.1160     0.0040     1.5770 c          1 20C       0.722100
     10 C10         -3.4140     0.0050     3.6270 ca         1 20C       0.015600
     11 O11         -3.0510     0.0050     0.8020 o          1 20C      -0.571500
     12 O12         -0.7660     0.0030     4.6820 o          1 20C      -0.572500
     13 C13         -0.7580     0.0070    -1.3030 c3         1 20C      -0.051800
     14 C14         -4.6240     0.0060     2.9390 ca         1 20C      -0.195000
     15 C15         -5.8060     0.0060     3.6210 ca         1 20C      -0.068000
     16 C16         -5.8080     0.0060     5.0200 ca         1 20C      -0.117600
     17 C17         -4.5910     0.0040     5.7180 ca         1 20C       0.144100
     18 C18         -3.3980    -0.0010     5.0160 ca         1 20C      -0.239000
     19 O19         -4.5830     0.0040     7.0750 oh         1 20C      -0.466100
     20 C20         -7.0830     0.0070     5.7570 c          1 20C       0.880200
     21 O21         -7.0820     0.0060     6.9720 o          1 20C      -0.827800
     22 O22         -8.2510     0.0080     5.0830 o          1 20C      -0.827800
     23 H2           1.9240    -0.0010    -0.9400 ha         1 20C       0.134000
     24 H3           3.1700    -0.0000     1.1770 ha         1 20C       0.132000
     25 H4           1.9690     0.0010     3.3330 ha         1 20C       0.146000
     26 H13         -0.0570     0.0050    -2.1280 hc         1 20C       0.052700
     27 H13A        -1.3850    -0.8750    -1.3600 hc         1 20C       0.052700
     28 H13B        -1.3770     0.8940    -1.3560 hc         1 20C       0.052700
     29 H14         -4.6280     0.0070     1.8560 ha         1 20C       0.154000
     30 H15         -6.7440     0.0060     3.0790 ha         1 20C       0.165000
     31 H18         -2.4570    -0.0900     5.5460 ha         1 20C       0.159000
     32 HO19        -4.0430     0.7120     7.3860 ho         1 20C       0.397000
@<TRIPOS>BOND
     1     6     1 ar  
     2    13     1 1   
     3     1     2 ar  
     4     2     3 ar  
     5     2    23 1   
     6     4     3 ar  
     7     3    24 1   
     8     5     4 ar  
     9     4    25 1   
    10     7     5 1   
    11     6     5 ar  
    12     9     6 1   
    13     8     7 1   
    14     7    12 2   
    15    10     8 1   
    16     8     9 1   
    17    11     9 2   
    18    18    10 ar  
    19    14    10 ar  
    20    13    26 1   
    21    13    27 1   
    22    13    28 1   
    23    15    14 ar  
    24    14    29 1   
    25    16    15 ar  
    26    15    30 1   
    27    20    16 1   
    28    16    17 ar  
    29    19    17 1   
    30    17    18 ar  
    31    18    31 1   
    32    19    32 1   
    33    21    20 1   
    34    22    20 1   
@<TRIPOS>SUBSTRUCTURE
     1 20C         1 TEMP              0 ****  ****    0 ROOT
