@<TRIPOS>MOLECULE
20D
   27    29     1     0     0
SMALL
bcc


@<TRIPOS>ATOM
      1 CAJ         0.0590   -0.2710   -0.0740 cc        1 20D     -0.317200
      2 CAG         1.5210   -0.2930   -0.0670 c         1 20D      0.589900
      3 OAK         2.1940   -0.4700   -1.0920 o         1 20D     -0.543100
      4 CAF         2.1160   -0.0890    1.2620 ca        1 20D     -0.214600
      5 CAA         3.5070   -0.0880    1.4510 ca        1 20D     -0.046000
      6 CAB         4.0430    0.1080    2.7170 ca        1 20D     -0.165000
      7 CAC         3.2000    0.3050    3.8180 ca        1 20D     -0.078000
      8 CAD         1.8200    0.3090    3.6630 ca        1 20D     -0.159000
      9 CAE         1.2870    0.1100    2.3760 ca        1 20D      0.142100
     10 OAH        -0.0980    0.1280    2.3030 os        1 20D     -0.226200
     11 CAI        -0.6650   -0.0660    1.0500 cd        1 20D      0.196900
     12 CAL        -2.1270   -0.0280    1.1180 ca        1 20D     -0.092800
     13 CAM        -2.7950   -0.4030    2.2930 ca        1 20D     -0.068000
     14 CAN        -4.1830   -0.3850    2.3530 ca        1 20D     -0.173500
     15 CAO        -4.9210    0.0180    1.2230 ca        1 20D      0.147900
     16 FAR        -6.2730    0.0370    1.2730 f         1 20D     -0.133900
     17 CAP        -4.2570    0.4020    0.0430 ca        1 20D     -0.173500
     18 CAQ        -2.8680    0.3790   -0.0010 ca        1 20D     -0.068000
     19 H1         -0.4320   -0.4390   -1.0440 ha        1 20D      0.168000
     20 H2          4.1570   -0.2440    0.5740 ha        1 20D      0.161000
     21 H3          5.1340    0.1080    2.8590 ha        1 20D      0.142000
     22 H4          3.6340    0.4600    4.8180 ha        1 20D      0.140000
     23 H5          1.1440    0.4640    4.5150 ha        1 20D      0.154000
     24 H6         -2.2110   -0.7130    3.1750 ha        1 20D      0.152000
     25 H7         -4.7110   -0.6810    3.2710 ha        1 20D      0.155500
     26 H8         -4.8410    0.7200   -0.8320 ha        1 20D      0.155500
     27 H9         -2.3490    0.6890   -0.9220 ha        1 20D      0.152000
@<TRIPOS>BOND
     1    1    2 1   
     2    1   11 2   
     3    1   19 1   
     4    2    3 2   
     5    2    4 1   
     6    4    5 ar  
     7    4    9 ar  
     8    5    6 ar  
     9    5   20 1   
    10    6    7 ar  
    11    6   21 1   
    12    7    8 ar  
    13    7   22 1   
    14    8    9 ar  
    15    8   23 1   
    16    9   10 1   
    17   10   11 1   
    18   11   12 1   
    19   12   13 ar  
    20   12   18 ar  
    21   13   14 ar  
    22   13   24 1   
    23   14   15 ar  
    24   14   25 1   
    25   15   16 1   
    26   15   17 ar  
    27   17   18 ar  
    28   17   26 1   
    29   18   27 1   
@<TRIPOS>SUBSTRUCTURE
     1 20D         1 TEMP              0 ****  ****    0 ROOT
