@<TRIPOS>MOLECULE
molecule
   27    29     1     0     0
SMALL
bcc


@<TRIPOS>ATOM
      1 CAJ          0.0000     0.0000     0.0000 cc         1 20D      -0.342200
      2 CAG          1.4140     0.0000     0.0000 c          1 20D       0.585900
      3 OAK          2.0480     0.0010    -1.0420 o          1 20D      -0.548100
      4 CAF          2.0920     0.0000     1.3120 ca         1 20D      -0.227600
      5 CAA          3.4820     0.0010     1.4090 ca         1 20D      -0.039000
      6 CAB          4.0770     0.0010     2.6530 ca         1 20D      -0.165000
      7 CAC          3.2990     0.0010     3.8000 ca         1 20D      -0.075000
      8 CAD          1.9220     0.0000     3.7170 ca         1 20D      -0.156000
      9 CAE          1.3030     0.0000     2.4730 ca         1 20D       0.156100
     10 OAH         -0.0420    -0.0010     2.3700 os         1 20D      -0.216200
     11 CAI         -0.6710     0.0060     1.1840 cd         1 20D       0.211900
     12 CAL         -2.1470     0.0050     1.1640 ca         1 20D      -0.087800
     13 CAM         -2.8650    -0.0030     2.3620 ca         1 20D      -0.067500
     14 CAN         -4.2430    -0.0040     2.3360 ca         1 20D      -0.172500
     15 CAO         -4.9170     0.0030     1.1250 ca         1 20D       0.154900
     16 FAR         -6.2680    -0.0040     1.1060 f          1 20D      -0.133900
     17 CAP         -4.2090     0.0100    -0.0680 ca         1 20D      -0.172500
     18 CAQ         -2.8310     0.0170    -0.0550 ca         1 20D      -0.067500
     19 H1          -0.5450     0.0060    -0.9360 ha         1 20D       0.168000
     20 H2           4.0910     0.0010     0.5130 ha         1 20D       0.160000
     21 H3           5.1570     0.0020     2.7340 ha         1 20D       0.139000
     22 H4           3.7770     0.0010     4.7720 ha         1 20D       0.139000
     23 H5           1.3230     0.0010     4.6200 ha         1 20D       0.146000
     24 H6          -2.3400    -0.0080     3.3100 ha         1 20D       0.152500
     25 H7          -4.8010    -0.0100     3.2650 ha         1 20D       0.152500
     26 H8          -4.7410     0.0170    -1.0110 ha         1 20D       0.152500
     27 H9          -2.2790     0.0220    -0.9870 ha         1 20D       0.152500
@<TRIPOS>BOND
     1    16    15 1   
     2    15    17 ar  
     3    15    14 ar  
     4    17    18 ar  
     5    14    13 ar  
     6    18    12 ar  
     7    13    12 ar  
     8    12    11 1   
     9    11    10 1   
    10    11     1 2   
    11    10     9 1   
    12     1     2 1   
    13     9     8 ar  
    14     9     4 ar  
    15     8     7 ar  
    16     2     4 1   
    17     2     3 2   
    18     4     5 ar  
    19     7     6 ar  
    20     5     6 ar  
    21     1    19 1   
    22     5    20 1   
    23     6    21 1   
    24     7    22 1   
    25     8    23 1   
    26    13    24 1   
    27    14    25 1   
    28    17    26 1   
    29    18    27 1   
@<TRIPOS>SUBSTRUCTURE
     1 20D         1 TEMP              0 ****  ****    0 ROOT
