@<TRIPOS>MOLECULE
molecule
   38    41     1     0     0
SMALL
bcc


@<TRIPOS>ATOM
      1 O01          0.0000     0.0000     0.0000 o          1 20F      -0.628500
      2 C02          1.2210     0.0000     0.0000 c          1 20F       0.668700
      3 C03          1.9200     0.0000     1.2250 cc         1 20F      -0.017100
      4 O04          1.2360    -0.0010     2.4020 oh         1 20F      -0.481100
      5 C05          3.2860     0.0010     1.2280 cd         1 20F      -0.076000
      6 C06          3.9750     0.0020    -0.0010 cc         1 20F      -0.116200
      7 C07          5.4570     0.0080    -0.0240 ca         1 20F      -0.057800
      8 C08          6.1590     1.1170     0.4470 ca         1 20F      -0.093000
      9 C09          7.5390     1.1190     0.4230 ca         1 20F      -0.168000
     10 C10          8.2270     0.0210    -0.0670 ca         1 20F       0.135900
     11 C11          7.5340    -1.0840    -0.5360 ca         1 20F      -0.168000
     12 C12          6.1540    -1.0970    -0.5110 ca         1 20F      -0.093000
     13 F13          9.5770     0.0290    -0.0930 f          1 20F      -0.137900
     14 C14          3.2580     0.0020    -1.1900 cd         1 20F       0.105400
     15 C15          3.9710     0.0030    -2.4800 ca         1 20F      -0.066800
     16 C16          5.0050     0.9180    -2.7060 ca         1 20F      -0.101500
     17 C17          5.6690     0.9170    -3.9060 ca         1 20F      -0.100500
     18 C18          5.3130     0.0040    -4.9020 ca         1 20F      -0.115500
     19 C19          4.2810    -0.9100    -4.6750 ca         1 20F      -0.100500
     20 C20          3.6200    -0.9160    -3.4740 ca         1 20F      -0.101500
     21 C21          6.0250     0.0080    -6.1970 cd         1 20F       0.403000
     22 N22          7.0400     0.8280    -6.5630 na         1 20F      -0.119400
     23 N23          7.3730     0.5030    -7.7670 nd         1 20F      -0.216800
     24 N24          6.6250    -0.4670    -8.1620 nc         1 20F      -0.028000
     25 N25          5.8020    -0.7890    -7.2250 nc         1 20F      -0.373000
     26 N26          1.8900    -0.0040    -1.1670 ns         1 20F      -0.399100
     27 H1           1.2100     0.8740     2.7510 ho         1 20F       0.419000
     28 H2           3.8320     0.0010     2.1630 ha         1 20F       0.155000
     29 H3           5.6220     1.9760     0.8300 ha         1 20F       0.143500
     30 H4           8.0850     1.9810     0.7890 ha         1 20F       0.150000
     31 H5           8.0760    -1.9420    -0.9160 ha         1 20F       0.150000
     32 H6           5.6130    -1.9610    -0.8770 ha         1 20F       0.143500
     33 H7           5.2810     1.6260    -1.9350 ha         1 20F       0.150000
     34 H8           6.4690     1.6250    -4.0820 ha         1 20F       0.147500
     35 H9           4.0080    -1.6200    -5.4470 ha         1 20F       0.147500
     36 H10          2.8200    -1.6250    -3.2990 ha         1 20F       0.150000
     37 H11          7.4520     1.5500    -6.0050 hn         1 20F       0.344700
     38 H12          1.3810    -0.0040    -2.0290 hn         1 20F       0.345500
@<TRIPOS>BOND
     1    13    10 1   
     2    24    25 1   
     3    24    23 2   
     4    25    21 2   
     5    23    22 1   
     6    10    11 ar  
     7    10     9 ar  
     8    11    12 ar  
     9    21    22 1   
    10    21    18 1   
    11     9     8 ar  
    12    12     7 ar  
    13    18    19 ar  
    14    18    17 ar  
    15    19    20 ar  
    16    17    16 ar  
    17     8     7 ar  
    18     7     6 1   
    19    20    15 ar  
    20    16    15 ar  
    21    15    14 1   
    22     6    14 2   
    23     6     5 1   
    24    14    26 1   
    25     5     3 2   
    26    26     2 1   
    27     3     2 1   
    28     3     4 1   
    29     2     1 2   
    30     4    27 1   
    31     5    28 1   
    32     8    29 1   
    33     9    30 1   
    34    11    31 1   
    35    12    32 1   
    36    16    33 1   
    37    17    34 1   
    38    19    35 1   
    39    20    36 1   
    40    22    37 1   
    41    26    38 1   
@<TRIPOS>SUBSTRUCTURE
     1 20F         1 TEMP              0 ****  ****    0 ROOT
