@<TRIPOS>MOLECULE
20F
   38    41     1     0     0
SMALL
bcc


@<TRIPOS>ATOM
      1 O01          0.0000     0.0000     0.0000 o          1 20F      -0.678500
      2 C02          1.2210     0.0000     0.0000 c          1 20F       0.555700
      3 C03          1.9200     0.0000     1.2250 cc         1 20F       0.005900
      4 O04          1.2360    -0.0010     2.4020 oh         1 20F      -0.460100
      5 C05          3.2860     0.0010     1.2280 cd         1 20F      -0.074000
      6 C06          3.9750     0.0020    -0.0010 cd         1 20F      -0.096200
      7 C07          5.4570     0.0080    -0.0240 ca         1 20F      -0.044800
      8 C08          6.1590     1.1170     0.4470 ca         1 20F      -0.070000
      9 C09          7.5390     1.1190     0.4230 ca         1 20F      -0.131500
     10 C10          8.2270     0.0210    -0.0670 ca         1 20F       0.103900
     11 C11          7.5340    -1.0840    -0.5360 ca         1 20F      -0.131500
     12 C12          6.1540    -1.0970    -0.5110 ca         1 20F      -0.070000
     13 F13          9.5770     0.0290    -0.0930 f          1 20F      -0.126900
     14 C14          3.2580     0.0020    -1.1900 cc         1 20F      -0.072600
     15 C15          3.9710     0.0030    -2.4800 ca         1 20F      -0.058800
     16 C16          5.0050     0.9180    -2.7060 ca         1 20F      -0.080500
     17 C17          5.6690     0.9170    -3.9060 ca         1 20F      -0.077500
     18 C18          5.3130     0.0040    -4.9020 ca         1 20F      -0.110500
     19 C19          4.2810    -0.9100    -4.6750 ca         1 20F      -0.077500
     20 C20          3.6200    -0.9160    -3.4740 ca         1 20F      -0.080500
     21 C21          6.0250     0.0080    -6.1970 cc         1 20F       0.208000
     22 N22          7.0400     0.8280    -6.5630 na         1 20F       0.400600
     23 N23          7.3730     0.5030    -7.7670 nc         1 20F      -0.390800
     24 N24          6.6250    -0.4670    -8.1620 nd         1 20F      -0.020000
     25 N25          5.8020    -0.7890    -7.2250 nd         1 20F      -0.338000
     26 N26          1.8900    -0.0040    -1.1670 ns         1 20F       0.097900
     27 H1           1.2100     0.8740     2.7510 ho         1 20F       0.401000
     28 H2           3.8320     0.0010     2.1630 ha         1 20F       0.125000
     29 H3           5.6220     1.9760     0.8300 ha         1 20F       0.115000
     30 H4           8.0850     1.9810     0.7890 ha         1 20F       0.122000
     31 H5           8.0760    -1.9420    -0.9160 ha         1 20F       0.122000
     32 H6           5.6130    -1.9610    -0.8770 ha         1 20F       0.115000
     33 H7           5.2810     1.6260    -1.9350 ha         1 20F       0.120500
     34 H8           6.4690     1.6250    -4.0820 ha         1 20F       0.117000
     35 H9           4.0080    -1.6200    -5.4470 ha         1 20F       0.117000
     36 H10          2.8200    -1.6250    -3.2990 ha         1 20F       0.120500
     37 H11          7.4520     1.5500    -6.0050 hn         1 20F       0.165700
     38 H12          1.3810    -0.0040    -2.0290 hn         1 20F       0.177500
@<TRIPOS>BOND
     1     1     2 2   
     2     2     3 1   
     3     2    26 1   
     4     3     4 1   
     5     3     5 2   
     6     4    27 1   
     7     5     6 1   
     8     5    28 1   
     9     6     7 1   
    10     6    14 2   
    11     7     8 ar  
    12     7    12 ar  
    13     8     9 ar  
    14     8    29 1   
    15     9    10 ar  
    16     9    30 1   
    17    10    11 ar  
    18    10    13 1   
    19    11    12 ar  
    20    11    31 1   
    21    12    32 1   
    22    14    15 1   
    23    14    26 1   
    24    15    16 ar  
    25    15    20 ar  
    26    16    17 ar  
    27    16    33 1   
    28    17    18 ar  
    29    17    34 1   
    30    18    19 ar  
    31    18    21 1   
    32    19    20 ar  
    33    19    35 1   
    34    20    36 1   
    35    21    22 1   
    36    21    25 2   
    37    22    23 1   
    38    22    37 1   
    39    23    24 2   
    40    24    25 1   
    41    26    38 1   
@<TRIPOS>SUBSTRUCTURE
     1 20F         1 TEMP              0 ****  ****    0 ROOT
