@<TRIPOS>MOLECULE
molecule
   47    48     1     0     0
SMALL
bcc


@<TRIPOS>ATOM
      1 Cl1          0.0000     0.0000     0.0000 cl         1 20G      -0.099400
      2 Cl2          4.6750     0.0010     2.7060 cl         1 20G      -0.070400
      3 C02          1.7360     0.0000     0.0000 ca         1 20G      -0.003600
      4 C03          2.4270     0.0000     1.2000 ca         1 20G      -0.081000
      5 C04          3.8090    -0.0000     1.2020 ca         1 20G       0.007400
      6 C06          4.5040    -0.0020    -0.0010 ca         1 20G       0.149100
      7 O07          5.8630    -0.0040    -0.0010 os         1 20G      -0.279900
      8 C08          6.5110    -0.0050    -1.2740 c3         1 20G       0.064400
      9 C09          8.0060    -0.0070    -1.0780 c          1 20G       0.662100
     10 N10          8.8270    -0.0080    -2.1470 n          1 20G      -0.497800
     11 C11         10.2850    -0.0090    -1.9700 c3         1 20G       0.108500
     12 C12         10.8790     1.1570    -2.7670 c3         1 20G      -0.114400
     13 C13         10.4210     1.0590    -4.2240 c3         1 20G       0.117700
     14 N14         11.0140     2.1530    -4.9970 ns         1 20G      -0.585900
     15 C15         11.1900     2.0220    -6.3260 c          1 20G       0.658100
     16 C16         11.8000     3.1490    -7.1200 c3         1 20G      -0.157400
     17 C17         11.8860     2.7460    -8.5940 c3         1 20G      -0.050400
     18 C18         12.5060     3.8900    -9.4000 c3         1 20G       0.037700
     19 S19         12.6080     3.4110   -11.1470 sh         1 20G      -0.419900
     20 O20         10.8580     0.9980    -6.8840 o          1 20G      -0.606100
     21 C21          8.8950     1.1560    -4.2900 c3         1 20G      -0.114400
     22 C22          8.2790    -0.0150    -3.5110 c3         1 20G       0.108500
     23 O23          8.4700    -0.0060     0.0430 o          1 20G      -0.570100
     24 C24          3.8090    -0.0030    -1.2000 ca         1 20G      -0.212000
     25 C25          2.4270    -0.0070    -1.1990 ca         1 20G      -0.081000
     26 H11         10.6940    -0.9440    -2.3370 h1         1 20G       0.060950
     27 H21          8.5750     1.1100    -5.3240 hc         1 20G       0.058950
     28 H11A        10.5230     0.1110    -0.9210 h1         1 20G       0.060950
     29 H21A         8.5740     2.0920    -3.8480 hc         1 20G       0.058950
     30 H12         11.9600     1.1090    -2.7250 hc         1 20G       0.058950
     31 H22          8.5320    -0.9490    -3.9990 h1         1 20G       0.060950
     32 H12A        10.5370     2.0940    -2.3440 hc         1 20G       0.058950
     33 H22A         7.2030     0.1010    -3.4710 h1         1 20G       0.060950
     34 H03          1.8840     0.0010     2.1370 ha         1 20G       0.162000
     35 H13         10.7380     0.1080    -4.6360 h1         1 20G       0.083700
     36 HN14        11.2940     2.9960    -4.5360 hn         1 20G       0.314500
     37 H24          4.3490    -0.0070    -2.1390 ha         1 20G       0.141000
     38 H25          1.8850    -0.0080    -2.1360 ha         1 20G       0.148000
     39 H16         11.1830     4.0340    -7.0240 hc         1 20G       0.060200
     40 H16A        12.7940     3.3590    -6.7440 hc         1 20G       0.060200
     41 H17         10.8920     2.5360    -8.9700 hc         1 20G       0.074200
     42 H17A        12.5040     1.8610    -8.6910 hc         1 20G       0.074200
     43 H08          6.2190    -0.8890    -1.8270 h1         1 20G       0.055200
     44 H18         11.8890     4.7750    -9.3040 h1         1 20G       0.052700
     45 H08A         6.2210     0.8800    -1.8280 h1         1 20G       0.055200
     46 H18A        13.5000     4.1000    -9.0240 h1         1 20G       0.052700
     47 HS19        13.1450     4.4030   -11.8470 hs         1 20G       0.215800
@<TRIPOS>BOND
     1     1     3 1
     2     5     2 1
     3    25     3 ar
     4     3     4 ar
     5     4     5 ar
     6     4    34 1
     7     6     5 ar
     8    24     6 ar
     9     6     7 1
    10     8     7 1
    11    43     8 1
    12     8    45 1
    13     8     9 1
    14    10     9 1
    15     9    23 2
    16    22    10 1
    17    10    11 1
    18    12    11 1
    19    11    26 1
    20    11    28 1
    21    13    12 1
    22    30    12 1
    23    12    32 1
    24    14    13 1
    25    21    13 1
    26    13    35 1
    27    15    14 1
    28    36    14 1
    29    16    15 1
    30    15    20 2
    31    17    16 1
    32    40    16 1
    33    16    39 1
    34    18    17 1
    35    17    41 1
    36    17    42 1
    37    19    18 1
    38    46    18 1
    39    44    18 1
    40    19    47 1
    41    27    21 1
    42    29    21 1
    43    21    22 1
    44    33    22 1
    45    22    31 1
    46    37    24 1
    47    25    24 ar
    48    38    25 1
@<TRIPOS>SUBSTRUCTURE
     1 20G         1 TEMP              0 ****  ****    0 ROOT
