@<TRIPOS>MOLECULE
molecule
   44    45     1     0     0
SMALL
bcc


@<TRIPOS>ATOM
      1 Cl1          0.0000     0.0000     0.0000 cl         1 20H      -0.100400
      2 Cl2          4.6740    -0.0010    -2.7070 cl         1 20H      -0.071400
      3 C02          1.7360     0.0000     0.0000 ca         1 20H      -0.002600
      4 C03          2.4270     0.0000     1.1980 ca         1 20H      -0.081000
      5 C04          3.8090     0.0010     1.1990 ca         1 20H      -0.212000
      6 C05          4.5030     0.0010    -0.0010 ca         1 20H       0.149100
      7 O06          5.8630     0.0000    -0.0010 os         1 20H      -0.279900
      8 C07          6.5110     0.0010     1.2720 c3         1 20H       0.063400
      9 C08          8.0060    -0.0000     1.0750 c          1 20H       0.663100
     10 N09          8.8270     0.0010     2.1440 n          1 20H      -0.495800
     11 C10          8.2800    -0.0050     3.5080 c3         1 20H       0.104500
     12 C11          8.9000    -1.1720     4.2830 c3         1 20H      -0.086900
     13 C12         10.4250    -1.0700     4.2170 c3         1 20H      -0.145700
     14 C13         11.0380    -2.1970     5.0080 c          1 20H       0.662100
     15 N14         12.3790    -2.3110     5.0920 ns         1 20H      -0.588900
     16 C15         12.9740    -3.4070     5.8590 c3         1 20H       0.129000
     17 C16         14.4990    -3.3040     5.7940 c3         1 20H       0.014700
     18 S17         15.2380    -4.6620     6.7450 sh         1 20H      -0.401900
     19 O18         10.3250    -3.0040     5.5670 o          1 20H      -0.600100
     20 C19         10.8820    -1.1610     2.7600 c3         1 20H      -0.086900
     21 C20         10.2850     0.0010     1.9680 c3         1 20H       0.104500
     22 O21          8.4690    -0.0000    -0.0460 o          1 20H      -0.569100
     23 C22          3.8080    -0.0010    -1.2020 ca         1 20H       0.007400
     24 C24          2.4260    -0.0060    -1.2000 ca         1 20H      -0.081000
     25 H10          8.5250     0.9280     4.0010 h1         1 20H       0.057700
     26 H20         10.5220    -0.1190     0.9170 h1         1 20H       0.057700
     27 H10A         7.2040    -0.1280     3.4660 h1         1 20H       0.057700
     28 H20A        10.6930     0.9350     2.3330 h1         1 20H       0.057700
     29 H11          8.5820    -2.1090     3.8410 hc         1 20H       0.063700
     30 H11A         8.5800    -1.1280     5.3180 hc         1 20H       0.063700
     31 H12         10.7390    -0.1200     4.6330 hc         1 20H       0.065700
     32 H03          1.8850     0.0000     2.1350 ha         1 20H       0.148000
     33 H04          4.3490     0.0010     2.1380 ha         1 20H       0.141000
     34 HN14        12.9670    -1.6210     4.6660 hn         1 20H       0.312500
     35 H24          1.8830    -0.0140    -2.1370 ha         1 20H       0.163000
     36 H15         12.6580    -4.3540     5.4410 h1         1 20H       0.069700
     37 H15A        12.6520    -3.3410     6.8920 h1         1 20H       0.069700
     38 H16         14.8220    -3.3690     4.7620 h1         1 20H       0.058700
     39 H16A        14.8160    -2.3560     6.2120 h1         1 20H       0.058700
     40 H07          6.2200    -0.8830     1.8270 h1         1 20H       0.055700
     41 H07A         6.2210     0.8860     1.8250 h1         1 20H       0.055700
     42 H19         11.9640    -1.1070     2.7180 hc         1 20H       0.063700
     43 H19A        10.5450    -2.0980     2.3340 hc         1 20H       0.063700
     44 HS17        16.5610    -4.5750     6.6860 hs         1 20H       0.221800
@<TRIPOS>BOND
     1     1     3 1   
     2    23     2 1   
     3     4     3 ar  
     4     3    24 ar  
     5    32     4 1   
     6     4     5 ar  
     7    33     5 1   
     8     5     6 ar  
     9     6     7 1   
    10     6    23 ar  
    11     8     7 1   
    12    40     8 1   
    13     8    41 1   
    14     8     9 1   
    15    10     9 1   
    16     9    22 2   
    17    11    10 1   
    18    10    21 1   
    19    12    11 1   
    20    25    11 1   
    21    11    27 1   
    22    30    12 1   
    23    29    12 1   
    24    12    13 1   
    25    14    13 1   
    26    13    31 1   
    27    13    20 1   
    28    19    14 2   
    29    15    14 1   
    30    16    15 1   
    31    15    34 1   
    32    17    16 1   
    33    36    16 1   
    34    16    37 1   
    35    18    17 1   
    36    39    17 1   
    37    17    38 1   
    38    18    44 1   
    39    43    20 1   
    40    20    42 1   
    41    20    21 1   
    42    21    26 1   
    43    21    28 1   
    44    24    23 ar  
    45    24    35 1   
@<TRIPOS>SUBSTRUCTURE
     1 20H         1 TEMP              0 ****  ****    0 ROOT
