@<TRIPOS>MOLECULE
molecule
   21    22     1     0     0
SMALL
bcc


@<TRIPOS>ATOM
      1 C1           0.0000     0.0000     0.0000 c3         1 20J      -0.131400
      2 C2           1.5070     0.0000     0.0000 c2         1 20J       0.694200
      3 N3           2.1130     0.0000     1.1340 ne         1 20J      -0.680100
      4 C4           3.4560     0.0460     1.3570 ca         1 20J       0.252400
      5 C5           3.9730    -0.2180     2.6270 ca         1 20J      -0.111000
      6 C6           5.3360    -0.1740     2.8390 ca         1 20J      -0.067000
      7 C7           6.2000     0.1370     1.8030 ca         1 20J      -0.001600
      8 C8           5.6970     0.4150     0.5400 ca         1 20J       0.000000
      9 C9           4.3430     0.3760     0.3270 ca         1 20J      -0.333500
     10 S10          3.6470     0.7540    -1.2560 sy         1 20J       1.397200
     11 O11          3.4040     2.1540    -1.2790 o          1 20J      -0.608800
     12 O12          4.4300     0.0740    -2.2270 o          1 20J      -0.608800
     13 N13          2.1560    -0.0060    -1.2120 nu         1 20J      -0.849100
     14 Cl1          7.9130     0.1790     2.0840 cl         1 20J      -0.097400
     15 H1          -0.3610     0.5110     0.8840 hc         1 20J       0.068033
     16 H2          -0.3610     0.5100    -0.8850 hc         1 20J       0.068033
     17 H3          -0.3610    -1.0210     0.0010 hc         1 20J       0.068033
     18 H4           3.3060    -0.4620     3.4450 ha         1 20J       0.157000
     19 H5           5.7340    -0.3910     3.8230 ha         1 20J       0.150000
     20 H6           6.3700     0.6580    -0.2730 ha         1 20J       0.156000
     21 H7           1.7600    -0.4400    -2.0220 hn         1 20J       0.475800
@<TRIPOS>BOND
     1     1     2 1   
     2    13     2 1   
     3    13    10 1   
     4    12    10 2   
     5     2     3 2   
     6    11    10 2   
     7    10     9 1   
     8     3     4 1   
     9     9     4 ar  
    10     9     8 ar  
    11     4     5 ar  
    12     8     7 ar  
    13     5     6 ar  
    14     7     6 ar  
    15     7    14 1   
    16     1    15 1   
    17     1    16 1   
    18     1    17 1   
    19     5    18 1   
    20     6    19 1   
    21     8    20 1   
    22    13    21 1   
@<TRIPOS>SUBSTRUCTURE
     1 20J         1 TEMP              0 ****  ****    0 ROOT
