@<TRIPOS>MOLECULE
20K
   42    44     1     0     0
SMALL
bcc


@<TRIPOS>ATOM
      1 S            0.0000     0.0000     0.0000 ss         1 20K      -0.291300
      2 Cl          -4.3790     1.4420    10.4000 cl         1 20K      -0.005400
      3 C1           2.5700     0.0000    -1.2370 c3         1 20K      -0.001400
      4 N1           2.1590     0.0000     1.2120 nc         1 20K      -0.568000
      5 C2           1.7100     0.0000     0.0000 cd         1 20K       0.451700
      6 N2          -3.3830     0.0020     4.2210 nb         1 20K      -0.693000
      7 C3           1.2760    -0.0000     2.1820 cc         1 20K       0.386600
      8 N3          -1.9960     0.0030     6.1030 nu         1 20K      -0.292300
      9 C4           1.6600     0.0010     3.6390 c3         1 20K      -0.022400
     10 N4          -6.4440    -0.4630     9.4270 nh         1 20K      -0.401000
     11 C5          -0.0100    -0.0000     1.7620 cd         1 20K      -0.204900
     12 N5          -1.0850     0.0020     3.9530 nb         1 20K      -0.689000
     13 C6          -1.2080     0.0010     2.6250 ca         1 20K       0.574800
     14 C7          -2.4900     0.0010     2.0630 ca         1 20K      -0.408600
     15 C8          -3.5800     0.0010     2.9110 ca         1 20K       0.494200
     16 C9          -2.1580     0.0020     4.7280 ca         1 20K       0.709900
     17 C10         -3.1150    -0.1150     6.9390 ca         1 20K       0.009600
     18 C11         -4.1510    -0.9720     6.5980 ca         1 20K      -0.092000
     19 C12         -5.2530    -1.0880     7.4210 ca         1 20K      -0.107000
     20 C13         -5.3260    -0.3460     8.5910 ca         1 20K      -0.004400
     21 C14         -7.6730    -0.0820     8.7170 c3         1 20K       0.179600
     22 C15         -6.5510    -1.8210     9.9750 c3         1 20K       0.179600
     23 C16         -4.2880     0.5140     8.9350 ca         1 20K       0.003400
     24 C17         -3.1840     0.6240     8.1140 ca         1 20K      -0.130000
     25 H1           3.0890    -0.9470    -1.3160 hc         1 20K       0.019700
     26 H1A          1.9460     0.1440    -2.1110 hc         1 20K       0.019700
     27 H1B          3.2940     0.8040    -1.1730 hc         1 20K       0.019700
     28 HN3         -1.0790     0.0610     6.5000 hn         1 20K       0.295800
     29 H4           1.2610     0.8880     4.1170 hc         1 20K       0.021033
     30 H4A          2.7400    -0.0020     3.7270 hc         1 20K       0.021033
     31 H4B          1.2560    -0.8810     4.1200 hc         1 20K       0.021033
     32 H7          -2.6230     0.0000     0.9880 ha         1 20K       0.136000
     33 H8          -4.5860     0.0010     2.5090 h4         1 20K      -0.016900
     34 H11         -4.0950    -1.5520     5.6840 ha         1 20K       0.128000
     35 H12         -6.0610    -1.7580     7.1540 ha         1 20K       0.113000
     36 H14         -8.0090    -0.9110     8.1060 h1         1 20K       0.004533
     37 H14A        -8.4420     0.1710     9.4370 h1         1 20K       0.004533
     38 H14B        -7.4730     0.7750     8.0850 h1         1 20K       0.004533
     39 H15         -5.5620    -2.1970    10.2060 h1         1 20K       0.004533
     40 H15A        -7.0220    -2.4690     9.2460 h1         1 20K       0.004533
     41 H15B        -7.1490    -1.8000    10.8780 h1         1 20K       0.004533
     42 H17         -2.3730     1.2890     8.3840 ha         1 20K       0.119000
@<TRIPOS>BOND
     1     1     5 1   
     2     1    11 1   
     3     2    23 1   
     4     3     5 1   
     5     3    25 1   
     6     3    26 1   
     7     3    27 1   
     8     4     5 2   
     9     4     7 1   
    10     6    15 ar  
    11     6    16 ar  
    12     7     9 1   
    13     7    11 2   
    14     8    16 1   
    15     8    17 1   
    16     8    28 1   
    17     9    29 1   
    18     9    30 1   
    19     9    31 1   
    20    10    20 1   
    21    10    21 1   
    22    10    22 1   
    23    11    13 1   
    24    12    13 ar  
    25    12    16 ar  
    26    13    14 ar  
    27    14    15 ar  
    28    14    32 1   
    29    15    33 1   
    30    17    18 ar  
    31    17    24 ar  
    32    18    19 ar  
    33    18    34 1   
    34    19    20 ar  
    35    19    35 1   
    36    20    23 ar  
    37    21    36 1   
    38    21    37 1   
    39    21    38 1   
    40    22    39 1   
    41    22    40 1   
    42    22    41 1   
    43    23    24 ar  
    44    24    42 1   
@<TRIPOS>SUBSTRUCTURE
     1 20K         1 TEMP              0 ****  ****    0 ROOT
