@<TRIPOS>MOLECULE
molecule
   29    30     1     0     0
SMALL
bcc


@<TRIPOS>ATOM
      1 N13          0.0000     0.0000     0.0000 nz         1 20L      -0.810600
      2 C15          1.4690     0.0000     0.0000 c3         1 20L       0.162100
      3 C22          7.4260    -0.0110     5.9220 ca         1 20L      -0.142000
      4 C21          6.9210     0.0000     4.6350 ca         1 20L      -0.087000
      5 C20          5.5560     0.0030     4.4270 ca         1 20L      -0.175500
      6 C19          4.6910    -0.0060     5.5120 ca         1 20L       0.115100
      7 C18          5.1990    -0.0160     6.8030 ca         1 20L      -0.175500
      8 C17          6.5660    -0.0240     7.0050 ca         1 20L      -0.087000
      9 C23          1.9710     0.0000     1.4200 ca         1 20L      -0.212300
     10 C24          2.2010    -1.1990     2.0700 ca         1 20L      -0.089000
     11 C25          2.6620    -1.2030     3.3730 ca         1 20L      -0.131000
     12 C26          2.8940    -0.0020     4.0290 ca         1 20L       0.177100
     13 C27          2.6620     1.1990     3.3740 ca         1 20L      -0.131000
     14 C28          2.2060     1.1980     2.0710 ca         1 20L      -0.089000
     15 O10          3.3460    -0.0030     5.3100 os         1 20L      -0.251200
     16 H19         -0.3340     0.0020    -0.9440 hn         1 20L       0.454800
     17 H29         -0.3340     0.8160     0.4730 hn         1 20L       0.454800
     18 H39         -0.3340    -0.8180     0.4700 hn         1 20L       0.454800
     19 H25          2.8420    -2.1420     3.8820 ha         1 20L       0.174000
     20 H17          6.9640    -0.0330     8.0130 ha         1 20L       0.144000
     21 H18          4.5250    -0.0250     7.6510 ha         1 20L       0.140000
     22 H22          8.4970    -0.0150     6.0830 ha         1 20L       0.145000
     23 H24          2.0200    -2.1360     1.5580 ha         1 20L       0.140000
     24 H28          2.0250     2.1360     1.5600 ha         1 20L       0.140000
     25 H27          2.8440     2.1380     3.8830 ha         1 20L       0.174000
     26 H20          5.1610     0.0110     3.4190 ha         1 20L       0.140000
     27 H51          1.8300     0.8840    -0.5110 hx         1 20L       0.111700
     28 H52          1.8300    -0.8840    -0.5110 hx         1 20L       0.111700
     29 H21          7.5970     0.0090     3.7890 ha         1 20L       0.144000
@<TRIPOS>BOND
     1     1     2 1   
     2     2     9 1   
     3     8     7 ar  
     4     8     3 ar  
     5     7     6 ar  
     6     6     5 ar  
     7     6    15 1   
     8     5     4 ar  
     9     4     3 ar  
    10     9    10 ar  
    11     9    14 ar  
    12    10    11 ar  
    13    11    12 ar  
    14    12    13 ar  
    15    12    15 1   
    16    13    14 ar  
    17     1    16 1   
    18     1    17 1   
    19     1    18 1   
    20     2    27 1   
    21     2    28 1   
    22    11    19 1   
    23     5    26 1   
    24     4    29 1   
    25     8    20 1   
    26     7    21 1   
    27     3    22 1   
    28    10    23 1   
    29    14    24 1   
    30    13    25 1   
@<TRIPOS>SUBSTRUCTURE
     1 20L         1 TEMP              0 ****  ****    0 ROOT
