@<TRIPOS>MOLECULE
20L
   29    30     1     0     0
SMALL
bcc


@<TRIPOS>ATOM
      1 N13          0.0000     0.0000     0.0000 nz         1 20L       0.073400
      2 C15          1.4690     0.0000     0.0000 c3         1 20L       0.042100
      3 C22          7.4260    -0.0110     5.9220 ca         1 20L      -0.118000
      4 C21          6.9210     0.0000     4.6350 ca         1 20L      -0.052000
      5 C20          5.5560     0.0030     4.4270 ca         1 20L      -0.163500
      6 C19          4.6910    -0.0060     5.5120 ca         1 20L       0.123100
      7 C18          5.1990    -0.0160     6.8030 ca         1 20L      -0.163500
      8 C17          6.5660    -0.0240     7.0050 ca         1 20L      -0.052000
      9 C23          1.9710     0.0000     1.4200 ca         1 20L      -0.233300
     10 C24          2.2010    -1.1990     2.0700 ca         1 20L      -0.051500
     11 C25          2.6620    -1.2030     3.3730 ca         1 20L      -0.105000
     12 C26          2.8940    -0.0020     4.0290 ca         1 20L       0.187100
     13 C27          2.6620     1.1990     3.3740 ca         1 20L      -0.105000
     14 C28          2.2060     1.1980     2.0710 ca         1 20L      -0.051500
     15 O10          3.3460    -0.0030     5.3100 os         1 20L      -0.227200
     16 H19         -0.3340     0.0020    -0.9440 hn         1 20L       0.223133
     17 H29         -0.3340     0.8160     0.4730 hn         1 20L       0.223133
     18 H39         -0.3340    -0.8180     0.4700 hn         1 20L       0.223133
     19 H25          2.8420    -2.1420     3.8820 ha         1 20L       0.140000
     20 H17          6.9640    -0.0330     8.0130 ha         1 20L       0.110500
     21 H18          4.5250    -0.0250     7.6510 ha         1 20L       0.115500
     22 H22          8.4970    -0.0150     6.0830 ha         1 20L       0.115000
     23 H24          2.0200    -2.1360     1.5580 ha         1 20L       0.110000
     24 H28          2.0250     2.1360     1.5600 ha         1 20L       0.110000
     25 H27          2.8440     2.1380     3.8830 ha         1 20L       0.140000
     26 H20          5.1610     0.0110     3.4190 ha         1 20L       0.115500
     27 H51          1.8300     0.8840    -0.5110 hx         1 20L       0.081700
     28 H52          1.8300    -0.8840    -0.5110 hx         1 20L       0.081700
     29 H21          7.5970     0.0090     3.7890 ha         1 20L       0.110500
@<TRIPOS>BOND
     1     1     2 1   
     2     1    16 1   
     3     1    17 1   
     4     1    18 1   
     5     2     9 1   
     6     2    27 1   
     7     2    28 1   
     8     3     4 ar  
     9     3     8 ar  
    10     3    22 1   
    11     4     5 ar  
    12     4    29 1   
    13     5     6 ar  
    14     5    26 1   
    15     6     7 ar  
    16     6    15 1   
    17     7     8 ar  
    18     7    21 1   
    19     8    20 1   
    20     9    10 ar  
    21     9    14 ar  
    22    10    11 ar  
    23    10    23 1   
    24    11    12 ar  
    25    11    19 1   
    26    12    13 ar  
    27    12    15 1   
    28    13    14 ar  
    29    13    25 1   
    30    14    24 1   
@<TRIPOS>SUBSTRUCTURE
     1 20L         1 TEMP              0 ****  ****    0 ROOT
