@<TRIPOS>MOLECULE
molecule
   62    66     1     0     0
SMALL
bcc


@<TRIPOS>ATOM
      1 C1           0.0000     0.0000     0.0000 ca         1 20M      -0.134000
      2 C2           1.3820     0.0000     0.0000 ca         1 20M      -0.031500
      3 C3           2.0730     0.0000     1.1970 ca         1 20M      -0.304500
      4 C4           1.3820     0.0000     2.3940 ca         1 20M      -0.031500
      5 C5          -0.0000     0.0010     2.3940 ca         1 20M      -0.134000
      6 C6          -0.6910     0.0000     1.1970 ca         1 20M      -0.078300
      7 C7          -2.1980     0.0060     1.1960 c3         1 20M       0.288100
      8 N8          -2.6930    -1.3730     1.1930 nu         1 20M      -0.853200
      9 C9          -4.0420    -1.6170     1.1920 c2         1 20M       0.923100
     10 N10         -4.8500    -0.6010     1.1950 ne         1 20M      -0.779100
     11 C11         -6.2030    -0.6300     1.2440 ca         1 20M       0.336400
     12 C12         -6.9700     0.5150     0.9900 ca         1 20M      -0.274300
     13 C13         -8.3430     0.4190     1.0490 ca         1 20M       0.481200
     14 N14         -8.9430    -0.7200     1.3440 nb         1 20M      -0.725000
     15 C15         -8.2580    -1.8250     1.6050 ca         1 20M       0.549200
     16 C16         -6.8920    -1.8080     1.5710 ca         1 20M      -0.501800
     17 S17         -5.9260    -3.2410     1.9400 sy         1 20M       1.407200
     18 O18         -5.6820    -3.2290     3.3410 o          1 20M      -0.608800
     19 O19         -6.5220    -4.3330     1.2540 o          1 20M      -0.608800
     20 N20         -4.4650    -2.9270     1.1830 nu         1 20M      -0.857100
     21 S21          3.8360    -0.0020     1.1970 sy         1 20M       1.423200
     22 O22          4.2360    -0.5460     2.4470 o          1 20M      -0.632300
     23 O23          4.2360    -0.5460    -0.0530 o          1 20M      -0.632300
     24 N24          4.3270     1.5800     1.1970 n3         1 20M      -0.817500
     25 C25          4.5430     2.2960    -0.0680 c3         1 20M       0.232800
     26 C26          5.9500     2.9020    -0.0570 c3         1 20M      -0.087400
     27 C27          6.1170     3.7700     1.1930 c3         1 20M       0.169500
     28 C28          5.9550     2.9020     2.4430 c3         1 20M      -0.087400
     29 C29          4.5480     2.2950     2.4610 c3         1 20M       0.232800
     30 N30          7.4530     4.3790     1.1910 n3         1 20M      -0.713600
     31 C31          7.6180     5.2860     0.0400 c3         1 20M       0.150800
     32 C32          7.9950     6.6730     0.6020 c3         1 20M      -0.097900
     33 C33          8.5800     6.3370     2.0000 c3         1 20M      -0.097900
     34 C34          7.6880     5.1460     2.4330 c3         1 20M       0.150800
     35 H1          -0.5420    -0.0000    -0.9380 ha         1 20M       0.143500
     36 H2           1.9240    -0.0000    -0.9380 ha         1 20M       0.154500
     37 H3           1.9240     0.0000     3.3320 ha         1 20M       0.154500
     38 H4          -0.5420     0.0010     3.3320 ha         1 20M       0.143500
     39 H5          -2.5570     0.5200     0.3130 h1         1 20M       0.070200
     40 H6          -2.5570     0.5170     2.0820 h1         1 20M       0.070200
     41 H7          -2.0460    -2.1360     1.1880 hn         1 20M       0.455800
     42 H8          -6.4920     1.4560     0.7460 ha         1 20M       0.153000
     43 H9          -8.9440     1.2960     0.8440 h4         1 20M       0.026100
     44 H10         -8.7830    -2.7430     1.8430 h4         1 20M       0.032100
     45 H11         -3.9300    -3.6520     0.7480 hn         1 20M       0.470800
     46 H12          3.8090     3.0870    -0.1660 h1         1 20M       0.054950
     47 H13          4.4530     1.6040    -0.8960 h1         1 20M       0.054950
     48 H14          6.0850     3.5140    -0.9410 hc         1 20M       0.060700
     49 H15          6.6850     2.1070    -0.0450 hc         1 20M       0.060700
     50 H16          5.3610     4.5460     1.1950 h1         1 20M       0.022700
     51 H17          6.6900     2.1060     2.4280 hc         1 20M       0.060700
     52 H18          6.0940     3.5130     3.3270 hc         1 20M       0.060700
     53 H19          3.8140     3.0840     2.5640 h1         1 20M       0.054950
     54 H20          4.4630     1.6010     3.2890 h1         1 20M       0.054950
     55 H22          6.6880     5.3540    -0.5110 h1         1 20M       0.044450
     56 H23          8.4100     4.9230    -0.6040 h1         1 20M       0.044450
     57 H24          7.1160     7.2980     0.6970 hc         1 20M       0.051200
     58 H25          8.7450     7.1460    -0.0200 hc         1 20M       0.051200
     59 H26          8.4620     7.1730     2.6790 hc         1 20M       0.051200
     60 H27          9.6170     6.0330     1.9210 hc         1 20M       0.051200
     61 H28          6.7490     5.5070     2.8350 h1         1 20M       0.044450
     62 H29          8.2070     4.5340     3.1600 h1         1 20M       0.044450
@<TRIPOS>BOND
     1    33    34 1   
     2    33    32 1   
     3    34    30 1   
     4    32    31 1   
     5    30    31 1   
     6    30    27 1   
     7    26    25 1   
     8    26    27 1   
     9    25    24 1   
    10    27    28 1   
    11    28    29 1   
    12    23    21 2   
    13    24    29 1   
    14    24    21 1   
    15    21    22 2   
    16    21     3 1   
    17     2     3 ar  
    18     2     1 ar  
    19     3     4 ar  
    20     1     6 ar  
    21     4     5 ar  
    22     6     5 ar  
    23     6     7 1   
    24     7     8 1   
    25    20    17 1   
    26    20     9 1   
    27    18    17 2   
    28     8     9 1   
    29    19    17 2   
    30    17    16 1   
    31     9    10 2   
    32    10    11 1   
    33    16    11 ar  
    34    16    15 ar  
    35    11    12 ar  
    36    15    14 ar  
    37    12    13 ar  
    38    14    13 ar  
    39     1    35 1   
    40     2    36 1   
    41     4    37 1   
    42     5    38 1   
    43     7    39 1   
    44     7    40 1   
    45     8    41 1   
    46    12    42 1   
    47    13    43 1   
    48    15    44 1   
    49    20    45 1   
    50    25    46 1   
    51    25    47 1   
    52    26    48 1   
    53    26    49 1   
    54    27    50 1   
    55    28    51 1   
    56    28    52 1   
    57    29    53 1   
    58    29    54 1   
    59    31    55 1   
    60    31    56 1   
    61    32    57 1   
    62    32    58 1   
    63    33    59 1   
    64    33    60 1   
    65    34    61 1   
    66    34    62 1   
@<TRIPOS>SUBSTRUCTURE
     1 20M         1 TEMP              0 ****  ****    0 ROOT
