@<TRIPOS>MOLECULE
20M
   62    66     1     0     0
SMALL
bcc


@<TRIPOS>ATOM
      1 C1           0.0000     0.0000     0.0000 ca         1 20M      -0.115000
      2 C2           1.3820     0.0000     0.0000 ca         1 20M       0.004500
      3 C3           2.0730     0.0000     1.1970 ca         1 20M      -0.152500
      4 C4           1.3820     0.0000     2.3940 ca         1 20M       0.004500
      5 C5          -0.0000     0.0010     2.3940 ca         1 20M      -0.115000
      6 C6          -0.6910     0.0000     1.1970 ca         1 20M      -0.084300
      7 C7          -2.1980     0.0060     1.1960 c3         1 20M       0.225100
      8 N8          -2.6930    -1.3730     1.1930 nu         1 20M      -0.440200
      9 C9          -4.0420    -1.6170     1.1920 c2         1 20M       0.653100
     10 N10         -4.8500    -0.6010     1.1950 ne         1 20M      -0.694100
     11 C11         -6.2030    -0.6300     1.2440 ca         1 20M       0.300400
     12 C12         -6.9700     0.5150     0.9900 ca         1 20M      -0.261300
     13 C13         -8.3430     0.4190     1.0490 ca         1 20M       0.474200
     14 N14         -8.9430    -0.7200     1.3440 nb         1 20M      -0.641000
     15 C15         -8.2580    -1.8250     1.6050 ca         1 20M       0.551200
     16 C16         -6.8920    -1.8080     1.5710 ca         1 20M      -0.350800
     17 S17         -5.9260    -3.2410     1.9400 sy         1 20M       1.044200
     18 O18         -5.6820    -3.2290     3.3410 o          1 20M      -0.561800
     19 O19         -6.5220    -4.3330     1.2540 o          1 20M      -0.561800
     20 N20         -4.4650    -2.9270     1.1830 nu         1 20M      -0.493100
     21 S21          3.8360    -0.0020     1.1970 sy         1 20M       1.053200
     22 O22          4.2360    -0.5460     2.4470 o          1 20M      -0.585300
     23 O23          4.2360    -0.5460    -0.0530 o          1 20M      -0.585300
     24 N24          4.3270     1.5800     1.1970 n3         1 20M      -0.530500
     25 C25          4.5430     2.2960    -0.0680 c3         1 20M       0.235800
     26 C26          5.9500     2.9020    -0.0570 c3         1 20M      -0.048900
     27 C27          6.1170     3.7700     1.1930 c3         1 20M       0.133500
     28 C28          5.9550     2.9020     2.4430 c3         1 20M      -0.048900
     29 C29          4.5480     2.2950     2.4610 c3         1 20M       0.235800
     30 N30          7.4530     4.3790     1.1910 n3         1 20M      -0.540600
     31 C31          7.6180     5.2860     0.0400 c3         1 20M       0.148300
     32 C32          7.9950     6.6730     0.6020 c3         1 20M      -0.035900
     33 C33          8.5800     6.3370     2.0000 c3         1 20M      -0.035900
     34 C34          7.6880     5.1460     2.4330 c3         1 20M       0.148300
     35 H1          -0.5420    -0.0000    -0.9380 ha         1 20M       0.115500
     36 H2           1.9240    -0.0000    -0.9380 ha         1 20M       0.125500
     37 H3           1.9240     0.0000     3.3320 ha         1 20M       0.125500
     38 H4          -0.5420     0.0010     3.3320 ha         1 20M       0.115500
     39 H5          -2.5570     0.5200     0.3130 h1         1 20M       0.037700
     40 H6          -2.5570     0.5170     2.0820 h1         1 20M       0.037700
     41 H7          -2.0460    -2.1360     1.1880 hn         1 20M       0.297800
     42 H8          -6.4920     1.4560     0.7460 ha         1 20M       0.127000
     43 H9          -8.9440     1.2960     0.8440 h4         1 20M      -0.024900
     44 H10         -8.7830    -2.7430     1.8430 h4         1 20M      -0.012900
     45 H11         -3.9300    -3.6520     0.7480 hn         1 20M       0.354800
     46 H12          3.8090     3.0870    -0.1660 h1         1 20M       0.021200
     47 H13          4.4530     1.6040    -0.8960 h1         1 20M       0.021200
     48 H14          6.0850     3.5140    -0.9410 hc         1 20M       0.032700
     49 H15          6.6850     2.1070    -0.0450 hc         1 20M       0.032700
     50 H16          5.3610     4.5460     1.1950 h1         1 20M       0.007700
     51 H17          6.6900     2.1060     2.4280 hc         1 20M       0.032700
     52 H18          6.0940     3.5130     3.3270 hc         1 20M       0.032700
     53 H19          3.8140     3.0840     2.5640 h1         1 20M       0.021200
     54 H20          4.4630     1.6010     3.2890 h1         1 20M       0.021200
     55 H22          6.6880     5.3540    -0.5110 h1         1 20M       0.016700
     56 H23          8.4100     4.9230    -0.6040 h1         1 20M       0.016700
     57 H24          7.1160     7.2980     0.6970 hc         1 20M       0.020450
     58 H25          8.7450     7.1460    -0.0200 hc         1 20M       0.020450
     59 H26          8.4620     7.1730     2.6790 hc         1 20M       0.020450
     60 H27          9.6170     6.0330     1.9210 hc         1 20M       0.020450
     61 H28          6.7490     5.5070     2.8350 h1         1 20M       0.016700
     62 H29          8.2070     4.5340     3.1600 h1         1 20M       0.016700
@<TRIPOS>BOND
     1     1     2 ar  
     2     1     6 ar  
     3     1    35 1   
     4     2     3 ar  
     5     2    36 1   
     6     3     4 ar  
     7     3    21 1   
     8     4     5 ar  
     9     4    37 1   
    10     5     6 ar  
    11     5    38 1   
    12     6     7 1   
    13     7     8 1   
    14     7    39 1   
    15     7    40 1   
    16     8     9 1   
    17     8    41 1   
    18     9    10 2   
    19     9    20 1   
    20    10    11 1   
    21    11    12 ar  
    22    11    16 ar  
    23    12    13 ar  
    24    12    42 1   
    25    13    14 ar  
    26    13    43 1   
    27    14    15 ar  
    28    15    16 ar  
    29    15    44 1   
    30    16    17 1   
    31    17    18 2   
    32    17    19 2   
    33    17    20 1   
    34    20    45 1   
    35    21    22 2   
    36    21    23 2   
    37    21    24 1   
    38    24    25 1   
    39    24    29 1   
    40    25    26 1   
    41    25    46 1   
    42    25    47 1   
    43    26    27 1   
    44    26    48 1   
    45    26    49 1   
    46    27    28 1   
    47    27    30 1   
    48    27    50 1   
    49    28    29 1   
    50    28    51 1   
    51    28    52 1   
    52    29    53 1   
    53    29    54 1   
    54    30    31 1   
    55    30    34 1   
    56    31    32 1   
    57    31    55 1   
    58    31    56 1   
    59    32    33 1   
    60    32    57 1   
    61    32    58 1   
    62    33    34 1   
    63    33    59 1   
    64    33    60 1   
    65    34    61 1   
    66    34    62 1   
@<TRIPOS>SUBSTRUCTURE
     1 20M         1 TEMP              0 ****  ****    0 ROOT
