@<TRIPOS>MOLECULE
20N
   30    31     1     0     0
SMALL
bcc


@<TRIPOS>ATOM
      1 C1           0.0000     0.0000     0.0000 c3         1 20N      -0.068100
      2 C2           1.5070     0.0000     0.0000 c          1 20N       0.558100
      3 O3           2.1130     0.0000     1.0510 o          1 20N      -0.636100
      4 N4           2.1820    -0.0000    -1.1670 ns         1 20N      -0.034100
      5 C5           3.5780     0.0970    -1.1690 ca         1 20N      -0.107400
      6 C6           4.3180    -0.5040    -0.1580 ca         1 20N      -0.099500
      7 C7           5.6950    -0.4090    -0.1600 ca         1 20N      -0.102500
      8 C8           6.3410     0.2890    -1.1720 ca         1 20N      -0.105400
      9 C9           5.6020     0.8900    -2.1830 ca         1 20N      -0.102500
     10 C10          4.2260     0.7900    -2.1840 ca         1 20N      -0.099500
     11 N11          7.7390     0.3870    -1.1730 ns         1 20N      -0.022100
     12 C12          8.3350     1.5120    -1.6140 c          1 20N       0.601100
     13 O13          7.6670     2.4080    -2.0870 o          1 20N      -0.638100
     14 C14          9.8320     1.6590    -1.5190 cx         1 20N      -0.221700
     15 C15         10.4490     2.9610    -2.0340 cx         1 20N      -0.049400
     16 C16         10.3790     2.6900    -0.5300 cx         1 20N      -0.049400
     17 H1          -0.3610     0.9720    -0.3120 hc         1 20N       0.023700
     18 H2          -0.3610    -0.7570    -0.6860 hc         1 20N       0.023700
     19 H3          -0.3610    -0.2160     0.9980 hc         1 20N       0.023700
     20 H4           1.6850    -0.0850    -2.0310 hn         1 20N       0.166500
     21 H5           3.8140    -1.0480     0.6310 ha         1 20N       0.126000
     22 H6           6.2710    -0.8770     0.6290 ha         1 20N       0.126000
     23 H7           6.1060     1.4330    -2.9730 ha         1 20N       0.126000
     24 H8           3.6490     1.2590    -2.9720 ha         1 20N       0.126000
     25 H9           8.2880    -0.3320    -0.7450 hn         1 20N       0.166500
     26 H10         10.4530     0.7810    -1.6490 hc         1 20N       0.062700
     27 H11         11.4310     2.8680    -2.4810 hc         1 20N       0.052450
     28 H12          9.7460     3.6950    -2.4100 hc         1 20N       0.052450
     29 H13         11.3190     2.4310    -0.0580 hc         1 20N       0.052450
     30 H14          9.6340     3.2580     0.0130 hc         1 20N       0.052450
@<TRIPOS>BOND
     1     1     2 1   
     2     1    17 1   
     3     1    18 1   
     4     1    19 1   
     5     2     3 2   
     6     2     4 1   
     7     4     5 1   
     8     4    20 1   
     9     5     6 ar  
    10     5    10 ar  
    11     6     7 ar  
    12     6    21 1   
    13     7     8 ar  
    14     7    22 1   
    15     8     9 ar  
    16     8    11 1   
    17     9    10 ar  
    18     9    23 1   
    19    10    24 1   
    20    11    12 1   
    21    11    25 1   
    22    12    13 2   
    23    12    14 1   
    24    14    15 1   
    25    14    16 1   
    26    14    26 1   
    27    15    16 1   
    28    15    27 1   
    29    15    28 1   
    30    16    29 1   
    31    16    30 1   
@<TRIPOS>SUBSTRUCTURE
     1 20N         1 TEMP              0 ****  ****    0 ROOT
