@<TRIPOS>MOLECULE
20O
   45    48     1     0     0
SMALL
bcc


@<TRIPOS>ATOM
      1 C1           0.0000     0.0000     0.0000 ca         1 20O      -0.048000
      2 C2           1.3820     0.0000     0.0000 ca         1 20O      -0.132000
      3 C3           2.0740     0.0000     1.1960 ca         1 20O       0.002000
      4 C4           1.3830     0.0010     2.3940 ca         1 20O      -0.141500
      5 C5           0.0010     0.0020     2.3950 ca         1 20O       0.002000
      6 C6          -0.6910     0.0070     1.1980 ca         1 20O      -0.132000
      7 S7           2.2640     0.0010     3.9200 sy         1 20O       0.962600
      8 O8           1.3830    -0.5430     4.8930 o          1 20O      -0.592800
      9 O9           3.5470    -0.5440     3.6420 o          1 20O      -0.592800
     10 C10          2.5270     1.6840     4.3710 ca         1 20O      -0.157500
     11 C11          1.5930     2.3440     5.1470 ca         1 20O       0.020000
     12 C12          1.7950     3.6630     5.5020 ca         1 20O      -0.151000
     13 C13          2.9390     4.3270     5.0790 ca         1 20O      -0.044400
     14 C14          3.8760     3.6610     4.3000 ca         1 20O      -0.151000
     15 C15          3.6700     2.3410     3.9520 ca         1 20O       0.020000
     16 N16          3.1470     5.6630     5.4370 ns         1 20O      -0.030100
     17 C17          2.1000     6.5060     5.5310 c          1 20O       0.604100
     18 O18          0.9700     6.0880     5.3890 o          1 20O      -0.634100
     19 C19          2.3330     7.9680     5.8140 cx         1 20O      -0.212700
     20 C20          2.0260     8.9620     4.6920 cx         1 20O      -0.054400
     21 C21          1.1030     8.8740     5.9100 cx         1 20O      -0.011400
     22 C22          1.1490    10.0070     6.9020 ca         1 20O      -0.178600
     23 C23          0.2200    10.0800     7.9280 ca         1 20O      -0.055000
     24 C24          0.3020    11.1410     8.8180 ca         1 20O      -0.217300
     25 C25          1.2990    12.0830     8.6540 ca         1 20O       0.401200
     26 N26          2.1660    11.9820     7.6650 nb         1 20O      -0.578000
     27 C27          2.1220    10.9840     6.8040 ca         1 20O       0.391200
     28 H1          -0.5420     0.0020    -0.9380 ha         1 20O       0.101000
     29 H2           1.9230    -0.0030    -0.9380 ha         1 20O       0.108500
     30 H3           3.1580    -0.0000     1.1950 ha         1 20O       0.121500
     31 H4          -0.5400     0.0050     3.3330 ha         1 20O       0.121500
     32 H5          -1.7740     0.0070     1.1980 ha         1 20O       0.108500
     33 H6           0.7000     1.8250     5.4760 ha         1 20O       0.123000
     34 H7           1.0620     4.1800     6.1100 ha         1 20O       0.131000
     35 H8           4.7710     4.1750     3.9700 ha         1 20O       0.131000
     36 H9           4.4010     1.8210     3.3440 ha         1 20O       0.123000
     37 H10          4.0690     5.9840     5.6580 hn         1 20O       0.173500
     38 H11          3.1560     8.2520     6.4590 hc         1 20O       0.070700
     39 H12          2.6660     9.8350     4.6530 hc         1 20O       0.056700
     40 H13          1.6370     8.5300     3.7790 hc         1 20O       0.056700
     41 H14          0.1580     8.3760     5.7280 hc         1 20O       0.088700
     42 H15         -0.5510     9.3270     8.0320 ha         1 20O       0.115000
     43 H16         -0.4080    11.2300     9.6320 ha         1 20O       0.114000
     44 H17          1.3680    12.9160     9.3430 h4         1 20O      -0.019900
     45 H18          2.8520    10.9350     6.0050 h4         1 20O      -0.013900
@<TRIPOS>BOND
     1     1     2 ar  
     2     1     6 ar  
     3     1    28 1   
     4     2     3 ar  
     5     2    29 1   
     6     3     4 ar  
     7     3    30 1   
     8     4     5 ar  
     9     4     7 1   
    10     5     6 ar  
    11     5    31 1   
    12     6    32 1   
    13     7     8 2   
    14     7     9 2   
    15     7    10 1   
    16    10    11 ar  
    17    10    15 ar  
    18    11    12 ar  
    19    11    33 1   
    20    12    13 ar  
    21    12    34 1   
    22    13    14 ar  
    23    13    16 1   
    24    14    15 ar  
    25    14    35 1   
    26    15    36 1   
    27    16    17 1   
    28    16    37 1   
    29    17    18 2   
    30    17    19 1   
    31    19    20 1   
    32    19    21 1   
    33    19    38 1   
    34    20    21 1   
    35    20    39 1   
    36    20    40 1   
    37    21    22 1   
    38    21    41 1   
    39    22    23 ar  
    40    22    27 ar  
    41    23    24 ar  
    42    23    42 1   
    43    24    25 ar  
    44    24    43 1   
    45    25    26 ar  
    46    25    44 1   
    47    26    27 ar  
    48    27    45 1   
@<TRIPOS>SUBSTRUCTURE
     1 20O         1 TEMP              0 ****  ****    0 ROOT
