@<TRIPOS>MOLECULE
molecule
   45    48     1     0     0
SMALL
bcc


@<TRIPOS>ATOM
      1 C1           0.0000     0.0000     0.0000 ca         1 20O      -0.074000
      2 C2           1.3820     0.0000     0.0000 ca         1 20O      -0.149500
      3 C3           2.0740     0.0000     1.1960 ca         1 20O      -0.028000
      4 C4           1.3830     0.0010     2.3940 ca         1 20O      -0.295500
      5 C5           0.0010     0.0020     2.3950 ca         1 20O      -0.028000
      6 C6          -0.6910     0.0070     1.1980 ca         1 20O      -0.149500
      7 S7           2.2640     0.0010     3.9200 sy         1 20O       1.294600
      8 O8           1.3830    -0.5430     4.8930 o          1 20O      -0.628300
      9 O9           3.5470    -0.5440     3.6420 o          1 20O      -0.628300
     10 C10          2.5270     1.6840     4.3710 ca         1 20O      -0.315500
     11 C11          1.5930     2.3440     5.1470 ca         1 20O      -0.012500
     12 C12          1.7950     3.6630     5.5020 ca         1 20O      -0.168000
     13 C13          2.9390     4.3270     5.0790 ca         1 20O       0.107600
     14 C14          3.8760     3.6610     4.3000 ca         1 20O      -0.168000
     15 C15          3.6700     2.3410     3.9520 ca         1 20O      -0.012500
     16 N16          3.1470     5.6630     5.4370 ns         1 20O      -0.476100
     17 C17          2.1000     6.5060     5.5310 c          1 20O       0.696100
     18 O18          0.9700     6.0880     5.3890 o          1 20O      -0.591100
     19 C19          2.3330     7.9680     5.8140 cx         1 20O      -0.229700
     20 C20          2.0260     8.9620     4.6920 cx         1 20O      -0.105400
     21 C21          1.1030     8.8740     5.9100 cx         1 20O      -0.046400
     22 C22          1.1490    10.0070     6.9020 ca         1 20O      -0.182600
     23 C23          0.2200    10.0800     7.9280 ca         1 20O      -0.079000
     24 C24          0.3020    11.1410     8.8180 ca         1 20O      -0.251300
     25 C25          1.2990    12.0830     8.6540 ca         1 20O       0.418200
     26 N26          2.1660    11.9820     7.6650 nb         1 20O      -0.685000
     27 C27          2.1220    10.9840     6.8040 ca         1 20O       0.415200
     28 H1          -0.5420     0.0020    -0.9380 ha         1 20O       0.133000
     29 H2           1.9230    -0.0030    -0.9380 ha         1 20O       0.136500
     30 H3           3.1580    -0.0000     1.1950 ha         1 20O       0.149500
     31 H4          -0.5400     0.0050     3.3330 ha         1 20O       0.149500
     32 H5          -1.7740     0.0070     1.1980 ha         1 20O       0.136500
     33 H6           0.7000     1.8250     5.4760 ha         1 20O       0.153000
     34 H7           1.0620     4.1800     6.1100 ha         1 20O       0.154500
     35 H8           4.7710     4.1750     3.9700 ha         1 20O       0.154500
     36 H9           4.4010     1.8210     3.3440 ha         1 20O       0.153000
     37 H10          4.0690     5.9840     5.6580 hn         1 20O       0.331500
     38 H11          3.1560     8.2520     6.4590 hc         1 20O       0.096700
     39 H12          2.6660     9.8350     4.6530 hc         1 20O       0.087200
     40 H13          1.6370     8.5300     3.7790 hc         1 20O       0.087200
     41 H14          0.1580     8.3760     5.7280 hc         1 20O       0.116700
     42 H15         -0.5510     9.3270     8.0320 ha         1 20O       0.145000
     43 H16         -0.4080    11.2300     9.6320 ha         1 20O       0.141000
     44 H17          1.3680    12.9160     9.3430 h4         1 20O       0.025100
     45 H18          2.8520    10.9350     6.0050 h4         1 20O       0.022100
@<TRIPOS>BOND
     1     6     1 ar  
     2     6     5 ar  
     3     1     2 ar  
     4     5     4 ar  
     5     2     3 ar  
     6     4     3 ar  
     7     4     7 1   
     8     8     7 2   
     9     7     9 2   
    10     7    10 1   
    11    15    10 ar  
    12    15    14 ar  
    13    10    11 ar  
    14    14    13 ar  
    15    11    12 ar  
    16    13    12 ar  
    17    13    16 1   
    18    18    17 2   
    19    16    17 1   
    20    17    19 1   
    21    19    20 1   
    22    19    21 1   
    23    20    21 1   
    24    21    22 1   
    25    22    23 ar  
    26    22    27 ar  
    27    23    24 ar  
    28    27    26 ar  
    29    24    25 ar  
    30    26    25 ar  
    31     1    28 1   
    32     2    29 1   
    33     3    30 1   
    34     5    31 1   
    35     6    32 1   
    36    11    33 1   
    37    12    34 1   
    38    14    35 1   
    39    15    36 1   
    40    16    37 1   
    41    19    38 1   
    42    20    39 1   
    43    20    40 1   
    44    21    41 1   
    45    23    42 1   
    46    24    43 1   
    47    25    44 1   
    48    27    45 1   
@<TRIPOS>SUBSTRUCTURE
     1 20O         1 TEMP              0 ****  ****    0 ROOT
