@<TRIPOS>MOLECULE
20P
   32    34     1     0     0
SMALL
bcc


@<TRIPOS>ATOM
      1 C1           0.0000     0.0000     0.0000 ca         1 20P      -0.102000
      2 C2           1.3820     0.0000     0.0000 ca         1 20P      -0.096500
      3 C3           2.0740     0.0000     1.1960 ca         1 20P      -0.100000
      4 C4           1.3840     0.0000     2.3940 ca         1 20P      -0.059300
      5 C5           0.0020     0.0020     2.3950 ca         1 20P      -0.100000
      6 C6          -0.6900     0.0010     1.1980 ca         1 20P      -0.096500
      7 C7           2.1390     0.0010     3.6980 cx         1 20P      -0.010400
      8 C9           1.3310     0.2040     4.9810 cx         1 20P      -0.062400
      9 C10          1.9040    -1.1750     4.6490 cx         1 20P      -0.213700
     10 C12          3.0770    -1.6550     5.4650 c          1 20P       0.603100
     11 O13          4.1560    -1.1140     5.3510 o          1 20P      -0.632100
     12 N14          2.9280    -2.6870     6.3180 ns         1 20P      -0.026100
     13 C15          4.0340    -3.1960     7.0000 ca         1 20P      -0.062400
     14 C16          5.0600    -2.3540     7.4250 ca         1 20P      -0.242300
     15 C17          6.1360    -2.8960     8.0960 ca         1 20P       0.422200
     16 N18          6.2020    -4.1910     8.3360 nb         1 20P      -0.597000
     17 C19          5.2500    -5.0200     7.9500 ca         1 20P       0.422200
     18 C20          4.1380    -4.5570     7.2790 ca         1 20P      -0.242300
     19 H1          -0.5420    -0.0000    -0.9380 ha         1 20P       0.103000
     20 H2           1.9230    -0.0000    -0.9380 ha         1 20P       0.103000
     21 H3           3.1580    -0.0010     1.1950 ha         1 20P       0.110500
     22 H4          -0.5390     0.0020     3.3330 ha         1 20P       0.110500
     23 H5          -1.7740     0.0020     1.1990 ha         1 20P       0.103000
     24 H6           3.1410     0.4110     3.7230 hc         1 20P       0.087700
     25 H7           1.8390     0.7430     5.7720 hc         1 20P       0.055200
     26 H8           0.2610     0.3110     4.8490 hc         1 20P       0.055200
     27 H9           1.1740    -1.8980     4.3060 hc         1 20P       0.071700
     28 H10          2.0200    -3.0810     6.4730 hn         1 20P       0.170500
     29 H11          5.0130    -1.2890     7.2310 ha         1 20P       0.133000
     30 H12          6.9390    -2.2490     8.4300 h4         1 20P      -0.020400
     31 H13          5.3410    -6.0770     8.1680 h4         1 20P      -0.020400
     32 H14          3.3600    -5.2430     6.9640 ha         1 20P       0.133000
@<TRIPOS>BOND
     1     1     2 ar  
     2     1     6 ar  
     3     1    19 1   
     4     2     3 ar  
     5     2    20 1   
     6     3     4 ar  
     7     3    21 1   
     8     4     5 ar  
     9     4     7 1   
    10     5     6 ar  
    11     5    22 1   
    12     6    23 1   
    13     7     8 1   
    14     7     9 1   
    15     7    24 1   
    16     8     9 1   
    17     8    25 1   
    18     8    26 1   
    19     9    10 1   
    20     9    27 1   
    21    10    11 2   
    22    10    12 1   
    23    12    13 1   
    24    12    28 1   
    25    13    14 ar  
    26    13    18 ar  
    27    14    15 ar  
    28    14    29 1   
    29    15    16 ar  
    30    15    30 1   
    31    16    17 ar  
    32    17    18 ar  
    33    17    31 1   
    34    18    32 1   
@<TRIPOS>SUBSTRUCTURE
     1 20P         1 TEMP              0 ****  ****    0 ROOT
