@<TRIPOS>MOLECULE
molecule
   32    34     1     0     0
SMALL
bcc


@<TRIPOS>ATOM
      1 C1           0.0000     0.0000     0.0000 ca         1 20P      -0.127000
      2 C2           1.3820     0.0000     0.0000 ca         1 20P      -0.125000
      3 C3           2.0740     0.0000     1.1960 ca         1 20P      -0.121500
      4 C4           1.3840     0.0000     2.3940 ca         1 20P      -0.057300
      5 C5           0.0020     0.0020     2.3950 ca         1 20P      -0.121500
      6 C6          -0.6900     0.0010     1.1980 ca         1 20P      -0.125000
      7 C7           2.1390     0.0010     3.6980 cx         1 20P      -0.043400
      8 C9           1.3310     0.2040     4.9810 cx         1 20P      -0.112400
      9 C10          1.9040    -1.1750     4.6490 cx         1 20P      -0.230700
     10 C12          3.0770    -1.6550     5.4650 c          1 20P       0.696100
     11 O13          4.1560    -1.1140     5.3510 o          1 20P      -0.591100
     12 N14          2.9280    -2.6870     6.3180 ns         1 20P      -0.473100
     13 C15          4.0340    -3.1960     7.0000 ca         1 20P       0.088600
     14 C16          5.0600    -2.3540     7.4250 ca         1 20P      -0.272800
     15 C17          6.1360    -2.8960     8.0960 ca         1 20P       0.433200
     16 N18          6.2020    -4.1910     8.3360 nb         1 20P      -0.705000
     17 C19          5.2500    -5.0200     7.9500 ca         1 20P       0.433200
     18 C20          4.1380    -4.5570     7.2790 ca         1 20P      -0.272800
     19 H1          -0.5420    -0.0000    -0.9380 ha         1 20P       0.131000
     20 H2           1.9230    -0.0000    -0.9380 ha         1 20P       0.131000
     21 H3           3.1580    -0.0010     1.1950 ha         1 20P       0.133500
     22 H4          -0.5390     0.0020     3.3330 ha         1 20P       0.133500
     23 H5          -1.7740     0.0020     1.1990 ha         1 20P       0.131000
     24 H6           3.1410     0.4110     3.7230 hc         1 20P       0.115700
     25 H7           1.8390     0.7430     5.7720 hc         1 20P       0.085200
     26 H8           0.2610     0.3110     4.8490 hc         1 20P       0.085200
     27 H9           1.1740    -1.8980     4.3060 hc         1 20P       0.096700
     28 H10          2.0200    -3.0810     6.4730 hn         1 20P       0.329500
     29 H11          5.0130    -1.2890     7.2310 ha         1 20P       0.153000
     30 H12          6.9390    -2.2490     8.4300 h4         1 20P       0.024600
     31 H13          5.3410    -6.0770     8.1680 h4         1 20P       0.024600
     32 H14          3.3600    -5.2430     6.9640 ha         1 20P       0.153000
@<TRIPOS>BOND
     1     1     6 ar
     2     1     2 ar
     3     6     5 ar
     4     2     3 ar
     5     5     4 ar
     6     3     4 ar
     7     4     7 1
     8     7     8 1
     9     7     9 1
    10     8     9 1
    11     9    10 1
    12    10    11 2
    13    10    12 1
    14    12    13 1
    15    13    18 ar
    16    13    14 ar
    17    18    17 ar
    18    14    15 ar
    19    17    16 ar
    20    15    16 ar
    21     1    19 1
    22     2    20 1
    23     3    21 1
    24     5    22 1
    25     6    23 1
    26     7    24 1
    27     8    25 1
    28     8    26 1
    29     9    27 1
    30    12    28 1
    31    14    29 1
    32    15    30 1
    33    17    31 1
    34    18    32 1
@<TRIPOS>SUBSTRUCTURE
     1 20P         1 TEMP              0 ****  ****    0 ROOT
