@<TRIPOS>MOLECULE
molecule
   50    53     1     0     0
SMALL
bcc


@<TRIPOS>ATOM
      1 C9           0.0000     0.0000     0.0000 ca         1 20Q       0.067600
      2 C2           0.5080     0.0010    -2.2160 c          1 20Q       0.722500
      3 C3           1.8140     0.0000    -1.4500 c3         1 20Q      -0.090700
      4 C8           1.3890     0.0000     0.0000 ca         1 20Q      -0.136300
      5 N1          -0.4830     0.0010    -1.3090 ns         1 20Q      -0.454100
      6 C7          -0.6740    -0.0050     1.2190 ca         1 20Q      -0.150000
      7 C4           2.0940     0.0000     1.1830 ca         1 20Q      -0.067000
      8 C5           1.4180    -0.0010     2.3900 ca         1 20Q      -0.144000
      9 C6           0.0340    -0.0040     2.4040 ca         1 20Q       0.063400
     10 C13          0.2470    -4.1840    -1.9920 ca         1 20Q       0.028400
     11 Cl1         -0.8130    -4.9120    -3.1570 cl         1 20Q      -0.108400
     12 C12          0.9820    -3.0610    -2.3310 ca         1 20Q      -0.118000
     13 C11          1.8220    -2.4780    -1.4020 ca         1 20Q      -0.088300
     14 C10          2.6240    -1.2570    -1.7710 c3         1 20Q      -0.009100
     15 C31          2.6260     1.2570    -1.7740 c3         1 20Q      -0.064700
     16 C16          1.9270    -3.0160    -0.1320 ca         1 20Q      -0.116000
     17 C15          1.1920    -4.1350     0.2080 ca         1 20Q      -0.119000
     18 C14          0.3520    -4.7210    -0.7210 ca         1 20Q      -0.121000
     19 C32          1.7720     2.5000    -1.5050 c3         1 20Q       0.108000
     20 N33          2.5180     3.6880    -1.9430 n          1 20Q      -0.493800
     21 C34          3.0380     3.7310    -3.3160 c3         1 20Q       0.100000
     22 C35          3.8770     2.4730    -3.5640 c3         1 20Q      -0.097400
     23 C36          3.0370     1.2330    -3.2480 c3         1 20Q      -0.089400
     24 O2           0.3810     0.0020    -3.4220 o          1 20Q      -0.607500
     25 Cl6         -0.8130    -0.0110     3.9180 cl         1 20Q      -0.097400
     26 C33          2.7200     4.7210    -1.1000 c          1 20Q       0.662100
     27 O33          2.3770     4.6320     0.0600 o          1 20Q      -0.611100
     28 C37          3.3730     5.9840    -1.5990 c3         1 20Q      -0.170100
     29 H1          -1.4550     0.0020    -1.5450 hn         1 20Q       0.341500
     30 H2          -1.7570    -0.0070     1.2380 ha         1 20Q       0.148000
     31 H3           3.1770     0.0020     1.1680 ha         1 20Q       0.141000
     32 H4           1.9710    -0.0010     3.3210 ha         1 20Q       0.150000
     33 H6           2.8500    -1.2810    -2.8310 hc         1 20Q       0.065700
     34 H7           3.5470    -1.2470    -1.2050 hc         1 20Q       0.065700
     35 H8           3.5140     1.2890    -1.1540 hc         1 20Q       0.068700
     36 H9           2.5850    -2.5580     0.5970 ha         1 20Q       0.136000
     37 H10          1.2750    -4.5550     1.2040 ha         1 20Q       0.138000
     38 H11         -0.2240    -5.5980    -0.4540 ha         1 20Q       0.144000
     39 H12          0.8450     2.4300    -2.0610 h1         1 20Q       0.068200
     40 H13          1.5630     2.5740    -0.4450 h1         1 20Q       0.068200
     41 H14          2.2110     3.7590    -4.0160 h1         1 20Q       0.051200
     42 H15          3.6580     4.6100    -3.4420 h1         1 20Q       0.051200
     43 H16          4.1850     2.4440    -4.6020 hc         1 20Q       0.049700
     44 H17          4.7500     2.4890    -2.9230 hc         1 20Q       0.049700
     45 H18          2.1490     1.2320    -3.8680 hc         1 20Q       0.061700
     46 H19          3.6220     0.3430    -3.4440 hc         1 20Q       0.061700
     47 H20          3.2450     6.7710    -0.8660 hc         1 20Q       0.060700
     48 H21          2.9140     6.2830    -2.5330 hc         1 20Q       0.060700
     49 H22          4.4300     5.8060    -1.7570 hc         1 20Q       0.060700
     50 H5           0.9340    -2.6680    -3.3390 ha         1 20Q       0.156000
@<TRIPOS>BOND
     1    25     9 1   
     2     9     6 ar  
     3     9     8 ar  
     4     6     1 ar  
     5     8     7 ar  
     6     1     5 1   
     7     1     4 ar  
     8    11    10 1   
     9     5     2 1   
    10    10    18 ar  
    11    10    12 ar  
    12    18    17 ar  
    13     7     4 ar  
    14     4     3 1   
    15    17    16 ar  
    16    12    13 ar  
    17     2    24 2   
    18     2     3 1   
    19     3    14 1   
    20     3    15 1   
    21    16    13 ar  
    22    13    14 1   
    23    15    23 1   
    24    15    19 1   
    25    28    26 1   
    26    23    22 1   
    27    19    20 1   
    28    26    20 1   
    29    26    27 2   
    30    22    21 1   
    31    20    21 1   
    32     5    29 1   
    33     6    30 1   
    34     7    31 1   
    35     8    32 1   
    36    12    50 1   
    37    14    33 1   
    38    14    34 1   
    39    15    35 1   
    40    16    36 1   
    41    17    37 1   
    42    18    38 1   
    43    19    39 1   
    44    19    40 1   
    45    21    41 1   
    46    21    42 1   
    47    22    43 1   
    48    22    44 1   
    49    23    45 1   
    50    23    46 1   
    51    28    47 1   
    52    28    48 1   
    53    28    49 1   
@<TRIPOS>SUBSTRUCTURE
     1 20Q         1 TEMP              0 ****  ****    0 ROOT
