@<TRIPOS>MOLECULE
20Q
   50    53     1     0     0
SMALL
bcc


@<TRIPOS>ATOM
      1 C9           0.0000     0.0000     0.0000 ca         1 20Q      -0.085400
      2 C2           0.5080     0.0010    -2.2160 c          1 20Q       0.621500
      3 C3           1.8140     0.0000    -1.4500 c3         1 20Q      -0.075700
      4 C8           1.3890     0.0000     0.0000 ca         1 20Q      -0.142300
      5 N1          -0.4830     0.0010    -1.3090 ns         1 20Q      -0.000100
      6 C7          -0.6740    -0.0050     1.2190 ca         1 20Q      -0.116000
      7 C4           2.0940     0.0000     1.1830 ca         1 20Q      -0.030000
      8 C5           1.4180    -0.0010     2.3900 ca         1 20Q      -0.119000
      9 C6           0.0340    -0.0040     2.4040 ca         1 20Q      -0.002600
     10 C13          0.2470    -4.1840    -1.9920 ca         1 20Q      -0.033600
     11 Cl1         -0.8130    -4.9120    -3.1570 cl         1 20Q      -0.024400
     12 C12          0.9820    -3.0610    -2.3310 ca         1 20Q      -0.102000
     13 C11          1.8220    -2.4780    -1.4020 ca         1 20Q      -0.094300
     14 C10          2.6240    -1.2570    -1.7710 c3         1 20Q       0.048900
     15 C31          2.6260     1.2570    -1.7740 c3         1 20Q      -0.038700
     16 C16          1.9270    -3.0160    -0.1320 ca         1 20Q      -0.097000
     17 C15          1.1920    -4.1350     0.2080 ca         1 20Q      -0.089000
     18 C14          0.3520    -4.7210    -0.7210 ca         1 20Q      -0.100000
     19 C32          1.7720     2.5000    -1.5050 c3         1 20Q       0.038000
     20 N33          2.5180     3.6880    -1.9430 n          1 20Q      -0.155800
     21 C34          3.0380     3.7310    -3.3160 c3         1 20Q       0.041000
     22 C35          3.8770     2.4730    -3.5640 c3         1 20Q      -0.035400
     23 C36          3.0370     1.2330    -3.2480 c3         1 20Q      -0.058400
     24 O2           0.3810     0.0020    -3.4220 o          1 20Q      -0.649500
     25 Cl6         -0.8130    -0.0110     3.9180 cl         1 20Q      -0.017400
     26 C33          2.7200     4.7210    -1.1000 c          1 20Q       0.588100
     27 O33          2.3770     4.6320     0.0600 o          1 20Q      -0.650100
     28 C37          3.3730     5.9840    -1.5990 c3         1 20Q      -0.072100
     29 H1          -1.4550     0.0020    -1.5450 hn         1 20Q       0.178500
     30 H2          -1.7570    -0.0070     1.2380 ha         1 20Q       0.119000
     31 H3           3.1770     0.0020     1.1680 ha         1 20Q       0.109000
     32 H4           1.9710    -0.0010     3.3210 ha         1 20Q       0.121000
     33 H6           2.8500    -1.2810    -2.8310 hc         1 20Q       0.036200
     34 H7           3.5470    -1.2470    -1.2050 hc         1 20Q       0.036200
     35 H8           3.5140     1.2890    -1.1540 hc         1 20Q       0.042700
     36 H9           2.5850    -2.5580     0.5970 ha         1 20Q       0.113000
     37 H10          1.2750    -4.5550     1.2040 ha         1 20Q       0.107000
     38 H11         -0.2240    -5.5980    -0.4540 ha         1 20Q       0.115000
     39 H12          0.8450     2.4300    -2.0610 h1         1 20Q       0.043700
     40 H13          1.5630     2.5740    -0.4450 h1         1 20Q       0.043700
     41 H14          2.2110     3.7590    -4.0160 h1         1 20Q       0.026200
     42 H15          3.6580     4.6100    -3.4420 h1         1 20Q       0.026200
     43 H16          4.1850     2.4440    -4.6020 hc         1 20Q       0.020200
     44 H17          4.7500     2.4890    -2.9230 hc         1 20Q       0.020200
     45 H18          2.1490     1.2320    -3.8680 hc         1 20Q       0.042700
     46 H19          3.6220     0.3430    -3.4440 hc         1 20Q       0.042700
     47 H20          3.2450     6.7710    -0.8660 hc         1 20Q       0.024367
     48 H21          2.9140     6.2830    -2.5330 hc         1 20Q       0.024367
     49 H22          4.4300     5.8060    -1.7570 hc         1 20Q       0.024367
     50 H5           0.9340    -2.6680    -3.3390 ha         1 20Q       0.133000
@<TRIPOS>BOND
     1     1     4 ar  
     2     1     5 1   
     3     1     6 ar  
     4     2     3 1   
     5     2     5 1   
     6     2    24 2   
     7     3     4 1   
     8     3    14 1   
     9     3    15 1   
    10     4     7 ar  
    11     5    29 1   
    12     6     9 ar  
    13     6    30 1   
    14     7     8 ar  
    15     7    31 1   
    16     8     9 ar  
    17     8    32 1   
    18     9    25 1   
    19    10    11 1   
    20    10    12 ar  
    21    10    18 ar  
    22    12    13 ar  
    23    12    50 1   
    24    13    14 1   
    25    13    16 ar  
    26    14    33 1   
    27    14    34 1   
    28    15    19 1   
    29    15    23 1   
    30    15    35 1   
    31    16    17 ar  
    32    16    36 1   
    33    17    18 ar  
    34    17    37 1   
    35    18    38 1   
    36    19    20 1   
    37    19    39 1   
    38    19    40 1   
    39    20    21 1   
    40    20    26 1   
    41    21    22 1   
    42    21    41 1   
    43    21    42 1   
    44    22    23 1   
    45    22    43 1   
    46    22    44 1   
    47    23    45 1   
    48    23    46 1   
    49    26    27 2   
    50    26    28 1   
    51    28    47 1   
    52    28    48 1   
    53    28    49 1   
@<TRIPOS>SUBSTRUCTURE
     1 20Q         1 TEMP              0 ****  ****    0 ROOT
