@<TRIPOS>MOLECULE
molecule
   44    47     1     0     0
SMALL
bcc


@<TRIPOS>ATOM
      1 C1           0.0000     0.0000     0.0000 ca         1 20R      -0.073000
      2 C2           1.3820     0.0000     0.0000 ca         1 20R      -0.149000
      3 C3           2.0740     0.0000     1.1970 ca         1 20R      -0.029000
      4 C4           1.3830    -0.0000     2.3940 ca         1 20R      -0.298500
      5 C5           0.0010    -0.0000     2.3950 ca         1 20R      -0.029000
      6 C6          -0.6910     0.0060     1.1970 ca         1 20R      -0.149000
      7 S7           2.2640    -0.0010     3.9200 sy         1 20R       1.292600
      8 O8           1.3820    -0.5450     4.8920 o          1 20R      -0.624800
      9 O9           3.5460    -0.5460     3.6430 o          1 20R      -0.624800
     10 C10          2.5260     1.6820     4.3730 ca         1 20R      -0.289500
     11 C11          3.6620     2.3420     3.9470 ca         1 20R      -0.031000
     12 C12          3.8680     3.6630     4.3010 ca         1 20R      -0.135000
     13 C13          2.9360     4.3220     5.0820 ca         1 20R      -0.066300
     14 C14          1.7990     3.6600     5.5070 ca         1 20R      -0.135000
     15 C15          1.5910     2.3410     5.1490 ca         1 20R      -0.031000
     16 C16          3.1600     5.7600     5.4700 c3         1 20R       0.155300
     17 N17          2.5690     6.6380     4.4560 ns         1 20R      -0.585900
     18 C18          2.6480     7.9760     4.5940 c          1 20R       0.684700
     19 O19          3.2090     8.4550     5.5590 o          1 20R      -0.613100
     20 C20          2.0520     8.8580     3.5730 ca         1 20R      -0.332900
     21 C21          2.1390    10.2380     3.7140 ca         1 20R       0.062000
     22 C22          1.5570    11.0390     2.7150 ca         1 20R      -0.336300
     23 C23          1.4380    12.4020     2.5040 cc         1 20R      -0.079100
     24 N24          0.7680    12.5800     1.3590 na         1 20R       0.038800
     25 N25          0.4370    11.3420     0.8010 nc         1 20R      -0.253400
     26 C27          0.8900    10.3790     1.5800 ca         1 20R       0.364300
     27 N28          0.8530     9.0370     1.5270 nb         1 20R      -0.673000
     28 C29          1.4020     8.3010     2.4560 ca         1 20R       0.488200
     29 H1          -0.5420     0.0020    -0.9380 ha         1 20R       0.135000
     30 H2           1.9240    -0.0020    -0.9380 ha         1 20R       0.138000
     31 H3           3.1580    -0.0000     1.1970 ha         1 20R       0.150000
     32 H4          -0.5400     0.0020     3.3330 ha         1 20R       0.150000
     33 H5          -1.7740     0.0060     1.1970 ha         1 20R       0.138000
     34 H6           4.3920     1.8260     3.3350 ha         1 20R       0.153500
     35 H7           4.7590     4.1810     3.9670 ha         1 20R       0.143000
     36 H8           1.0680     4.1770     6.1180 ha         1 20R       0.143000
     37 H9           0.7000     1.8230     5.4820 ha         1 20R       0.153500
     38 H10          4.2240     5.9540     5.5390 h1         1 20R       0.064700
     39 H11          2.6950     5.9520     6.4290 h1         1 20R       0.064700
     40 H12          2.1060     6.2430     3.6610 hn         1 20R       0.318500
     41 H13          2.3950    10.6690     4.6740 ha         1 20R       0.161000
     42 H14          1.8190    13.1840     3.1490 h4         1 20R       0.182000
     43 H15          0.5380    13.4690     0.9610 hn         1 20R       0.339700
     44 H16          1.3550     7.2230     2.3630 h4         1 20R       0.019100
@<TRIPOS>BOND
     1     6     1 ar  
     2     6     5 ar  
     3     1     2 ar  
     4     5     4 ar  
     5     2     3 ar  
     6     4     3 ar  
     7     4     7 1   
     8     9     7 2   
     9     7     8 2   
    10     7    10 1   
    11    11    10 ar  
    12    11    12 ar  
    13    10    15 ar  
    14    12    13 ar  
    15    15    14 ar  
    16    13    14 ar  
    17    13    16 1   
    18    16    17 1   
    19    19    18 2   
    20    17    18 1   
    21    18    20 1   
    22    20    28 ar  
    23    20    21 ar  
    24    28    27 ar  
    25    21    22 ar  
    26    27    26 ar  
    27    22    26 ar  
    28    22    23 2   
    29    26    25 2   
    30    25    24 1   
    31    23    24 1   
    32     1    29 1   
    33     2    30 1   
    34     3    31 1   
    35     5    32 1   
    36     6    33 1   
    37    11    34 1   
    38    12    35 1   
    39    14    36 1   
    40    15    37 1   
    41    16    38 1   
    42    16    39 1   
    43    17    40 1   
    44    21    41 1   
    45    23    42 1   
    46    24    43 1   
    47    28    44 1   
@<TRIPOS>SUBSTRUCTURE
     1 20R         1 TEMP              0 ****  ****    0 ROOT
