@<TRIPOS>MOLECULE
20R
   44    47     1     0     0
SMALL
bcc


@<TRIPOS>ATOM
      1 C1           0.0000     0.0000     0.0000 ca         1 20R      -0.047000
      2 C2           1.3820     0.0000     0.0000 ca         1 20R      -0.131000
      3 C3           2.0740     0.0000     1.1970 ca         1 20R       0.001500
      4 C4           1.3830    -0.0000     2.3940 ca         1 20R      -0.145500
      5 C5           0.0010    -0.0000     2.3950 ca         1 20R       0.001500
      6 C6          -0.6910     0.0060     1.1970 ca         1 20R      -0.131000
      7 S7           2.2640    -0.0010     3.9200 sy         1 20R       0.963600
      8 O8           1.3820    -0.5450     4.8920 o          1 20R      -0.589800
      9 O9           3.5460    -0.5460     3.6430 o          1 20R      -0.589800
     10 C10          2.5260     1.6820     4.3730 ca         1 20R      -0.136500
     11 C11          3.6620     2.3420     3.9470 ca         1 20R       0.001000
     12 C12          3.8680     3.6630     4.3010 ca         1 20R      -0.115500
     13 C13          2.9360     4.3220     5.0820 ca         1 20R      -0.077300
     14 C14          1.7990     3.6600     5.5070 ca         1 20R      -0.115500
     15 C15          1.5910     2.3410     5.1490 ca         1 20R       0.001000
     16 C16          3.1600     5.7600     5.4700 c3         1 20R       0.107300
     17 N17          2.5690     6.6380     4.4560 ns         1 20R      -0.203900
     18 C18          2.6480     7.9760     4.5940 c          1 20R       0.611700
     19 O19          3.2090     8.4550     5.5590 o          1 20R      -0.656100
     20 C20          2.0520     8.8580     3.5730 ca         1 20R      -0.338900
     21 C21          2.1390    10.2380     3.7140 ca         1 20R       0.099000
     22 C22          1.5570    11.0390     2.7150 ca         1 20R      -0.336300
     23 C23          1.4380    12.4020     2.5040 cc         1 20R      -0.249100
     24 N24          0.7680    12.5800     1.3590 na         1 20R       0.573800
     25 N25          0.4370    11.3420     0.8010 nc         1 20R      -0.426400
     26 C27          0.8900    10.3790     1.5800 ca         1 20R       0.348300
     27 N28          0.8530     9.0370     1.5270 nb         1 20R      -0.555000
     28 C29          1.4020     8.3010     2.4560 ca         1 20R       0.450200
     29 H1          -0.5420     0.0020    -0.9380 ha         1 20R       0.103000
     30 H2           1.9240    -0.0020    -0.9380 ha         1 20R       0.109000
     31 H3           3.1580    -0.0000     1.1970 ha         1 20R       0.122000
     32 H4          -0.5400     0.0020     3.3330 ha         1 20R       0.122000
     33 H5          -1.7740     0.0060     1.1970 ha         1 20R       0.109000
     34 H6           4.3920     1.8260     3.3350 ha         1 20R       0.125000
     35 H7           4.7590     4.1810     3.9670 ha         1 20R       0.115000
     36 H8           1.0680     4.1770     6.1180 ha         1 20R       0.115000
     37 H9           0.7000     1.8230     5.4820 ha         1 20R       0.125000
     38 H10          4.2240     5.9540     5.5390 h1         1 20R       0.032700
     39 H11          2.6950     5.9520     6.4290 h1         1 20R       0.032700
     40 H12          2.1060     6.2430     3.6610 hn         1 20R       0.183500
     41 H13          2.3950    10.6690     4.6740 ha         1 20R       0.126000
     42 H14          1.8190    13.1840     3.1490 h4         1 20R       0.152000
     43 H15          0.5380    13.4690     0.9610 hn         1 20R       0.144700
     44 H16          1.3550     7.2230     2.3630 h4         1 20R      -0.027900
@<TRIPOS>BOND
     1     1     2 ar  
     2     1     6 ar  
     3     1    29 1   
     4     2     3 ar  
     5     2    30 1   
     6     3     4 ar  
     7     3    31 1   
     8     4     5 ar  
     9     4     7 1   
    10     5     6 ar  
    11     5    32 1   
    12     6    33 1   
    13     7     8 2   
    14     7     9 2   
    15     7    10 1   
    16    10    11 ar  
    17    10    15 ar  
    18    11    12 ar  
    19    11    34 1   
    20    12    13 ar  
    21    12    35 1   
    22    13    14 ar  
    23    13    16 1   
    24    14    15 ar  
    25    14    36 1   
    26    15    37 1   
    27    16    17 1   
    28    16    38 1   
    29    16    39 1   
    30    17    18 1   
    31    17    40 1   
    32    18    19 2   
    33    18    20 1   
    34    20    21 ar  
    35    20    28 ar  
    36    21    22 ar  
    37    21    41 1   
    38    22    23 2   
    39    22    26 ar  
    40    23    24 1   
    41    23    42 1   
    42    24    25 1   
    43    24    43 1   
    44    25    26 2   
    45    26    27 ar  
    46    27    28 ar  
    47    28    44 1   
@<TRIPOS>SUBSTRUCTURE
     1 20R         1 TEMP              0 ****  ****    0 ROOT
