@<TRIPOS>MOLECULE
molecule
   68    69     1     0     0
SMALL
bcc


@<TRIPOS>ATOM
      1 C4           0.0000     0.0000     0.0000 c          1 20S       0.636100
      2 C7           1.5070     0.0000     0.0000 c3         1 20S      -0.128400
      3 C8           2.0160     0.0000     1.4430 c3         1 20S      -0.072400
      4 C9           3.5470    -0.0010     1.4430 c3         1 20S      -0.084400
      5 C10          4.0570    -0.0010     2.8850 c3         1 20S      -0.080400
      6 C11          5.5870    -0.0000     2.8850 c3         1 20S      -0.082400
      7 C12          6.0970    -0.0000     4.3270 c3         1 20S      -0.084400
      8 C1           1.0980    -0.8150    -4.5850 c3         1 20S       0.119100
      9 C2           1.1150     0.7240    -4.7630 c3         1 20S       0.090100
     10 C3           0.1660     0.8910    -5.9830 c3         1 20S       0.107100
     11 C13         -0.8560    -0.2430    -5.7570 c3         1 20S       0.320600
     12 O2          -0.2460    -1.2140    -4.8980 os         1 20S      -0.382600
     13 O4           2.4310     1.1930    -5.0660 oh         1 20S      -0.601800
     14 C18         -1.2190    -0.8910    -7.0960 c3         1 20S       0.125400
     15 O3          -2.0290    -2.0450    -6.8630 oh         1 20S      -0.598800
     16 O5          -0.4730     2.1700    -5.9590 oh         1 20S      -0.571800
     17 C21         -2.7450    -0.8340    -4.5930 c3         1 20S       0.303900
     18 C24         -4.2490    -0.6010    -4.7500 c3         1 20S       0.120100
     19 C27         -4.6310     0.6940    -4.0250 c3         1 20S       0.104100
     20 C16         -4.1310     0.6100    -2.5780 c3         1 20S       0.113100
     21 C29         -2.6360     0.2870    -2.5860 c3         1 20S       0.118100
     22 O9          -4.5740    -0.4880    -6.1370 oh         1 20S      -0.588800
     23 O11         -6.0530     0.8470    -4.0360 oh         1 20S      -0.614800
     24 O13         -4.3470     1.8630    -1.9240 oh         1 20S      -0.604800
     25 O15         -2.4180    -0.9760    -3.2120 os         1 20S      -0.381600
     26 O6          -2.0330     0.2800    -5.1370 os         1 20S      -0.390600
     27 C32         -2.1190     0.2360    -1.1460 c3         1 20S       0.166400
     28 O17         -0.6710     0.1190    -1.1550 os         1 20S      -0.440900
     29 C31          7.6270    -0.0010     4.3280 c3         1 20S      -0.092100
     30 O7          -0.6050    -0.1070     1.0410 o          1 20S      -0.550000
     31 H71          1.8680     0.8850    -0.5110 hc         1 20S       0.067700
     32 H72          1.8680    -0.8850    -0.5110 hc         1 20S       0.067700
     33 H81          1.6550    -0.8840     1.9540 hc         1 20S       0.060700
     34 H82          1.6560     0.8850     1.9530 hc         1 20S       0.060700
     35 H91          3.9080     0.8840     0.9320 hc         1 20S       0.038700
     36 H92          3.9080    -0.8850     0.9320 hc         1 20S       0.038700
     37 H101         3.6960    -0.8850     3.3960 hc         1 20S       0.045200
     38 H102         3.6960     0.8840     3.3960 hc         1 20S       0.045200
     39 H4           5.9480    -0.8850     2.3740 hc         1 20S       0.040200
     40 H11          5.9480     0.8840     2.3740 hc         1 20S       0.040200
     41 H5           5.7350    -0.8850     4.8380 hc         1 20S       0.041200
     42 H12          5.7360     0.8840     4.8380 hc         1 20S       0.041200
     43 H1           1.7950    -1.2780    -5.2740 h1         1 20S       0.063700
     44 H2           0.7100     1.2180    -3.8880 h1         1 20S       0.080700
     45 H3           0.7050     0.7410    -6.9100 h1         1 20S       0.063700
     46 HO4          2.5620     2.0380    -4.6690 ho         1 20S       0.412000
     47 HO1          2.3340    -2.9170    -2.9290 ho         1 20S       0.392000
     48 H181        -0.3130    -1.1840    -7.6120 h1         1 20S       0.039700
     49 H182        -1.7670    -0.1810    -7.7030 h1         1 20S       0.039700
     50 HO3         -1.9890    -2.6140    -7.6140 ho         1 20S       0.404000
     51 HO5         -0.1480     2.6970    -6.6690 ho         1 20S       0.404000
     52 H21         -2.4660    -1.7380    -5.1220 h2         1 20S       0.141700
     53 H24         -4.7900    -1.4320    -4.3130 h1         1 20S       0.060700
     54 H27         -4.1660     1.5370    -4.5200 h1         1 20S       0.078700
     55 H16         -4.6670    -0.1730    -2.0560 h1         1 20S       0.053700
     56 H29         -2.1070     1.0550    -3.1360 h1         1 20S       0.087700
     57 HO9         -5.3870    -0.9340    -6.3070 ho         1 20S       0.406000
     58 HO11        -6.2790     1.6530    -4.4700 ho         1 20S       0.412000
     59 HO13        -5.1140     1.8050    -1.3790 ho         1 20S       0.412000
     60 H321        -2.5470    -0.6200    -0.6390 h1         1 20S       0.062700
     61 H322        -2.4040     1.1440    -0.6280 h1         1 20S       0.062700
     62 H311         7.9880     0.8740     3.8020 hc         1 20S       0.032367
     63 H312         7.9870     0.0180     5.3490 hc         1 20S       0.032367
     64 H313         7.9880    -0.8940     3.8330 hc         1 20S       0.032367
     65 C17          1.4410    -1.1890    -3.1410 c3         1 20S       0.131400
     66 O1           1.4450    -2.6120    -3.0060 oh         1 20S      -0.585800
     67 H171         0.7010    -0.7650    -2.4730 h1         1 20S       0.058700
     68 H172         2.4200    -0.7990    -2.8900 h1         1 20S       0.058700
@<TRIPOS>BOND
     1     1     2 1   
     2     1    28 1   
     3     1    30 2   
     4     2     3 1   
     5     2    31 1   
     6     2    32 1   
     7     3     4 1   
     8     3    33 1   
     9     3    34 1   
    10     4     5 1   
    11     4    35 1   
    12     4    36 1   
    13     5     6 1   
    14     5    37 1   
    15     5    38 1   
    16     6     7 1   
    17     6    39 1   
    18     6    40 1   
    19     7    29 1   
    20     7    41 1   
    21     7    42 1   
    22     8     9 1   
    23     8    12 1   
    24     8    65 1   
    25     8    43 1   
    26     9    10 1   
    27     9    13 1   
    28     9    44 1   
    29    10    11 1   
    30    10    16 1   
    31    10    45 1   
    32    11    12 1   
    33    11    14 1   
    34    11    26 1   
    35    13    46 1   
    36    65    66 1   
    37    65    67 1   
    38    65    68 1   
    39    66    47 1   
    40    14    15 1   
    41    14    48 1   
    42    14    49 1   
    43    15    50 1   
    44    16    51 1   
    45    17    18 1   
    46    17    25 1   
    47    17    26 1   
    48    17    52 1   
    49    18    19 1   
    50    18    22 1   
    51    18    53 1   
    52    19    20 1   
    53    19    23 1   
    54    19    54 1   
    55    20    21 1   
    56    20    24 1   
    57    20    55 1   
    58    21    25 1   
    59    21    27 1   
    60    21    56 1   
    61    22    57 1   
    62    23    58 1   
    63    24    59 1   
    64    27    28 1   
    65    27    60 1   
    66    27    61 1   
    67    29    62 1   
    68    29    63 1   
    69    29    64 1   
@<TRIPOS>SUBSTRUCTURE
     1 20S         1 TEMP              0 ****  ****    0 ROOT
