@<TRIPOS>MOLECULE
20S
   68    64     1     0     0
SMALL
bcc


@<TRIPOS>ATOM
      1 C4         -0.4220    0.2850    0.3220 c2        1 20S      0.336000
      2 C7          0.9310   -0.3370    0.2550 c3        1 20S     -0.173000
      3 C8          1.7470   -0.0240    1.4900 c3        1 20S     -0.157000
      4 C9          3.0770   -0.7450    1.4460 c3        1 20S     -0.160000
      5 C10         3.9310   -0.3890    2.6440 c3        1 20S     -0.158000
      6 C11         5.2510   -1.1150    2.6150 c3        1 20S     -0.215000
      7 C12         7.3950   -0.3070    5.5540 c1        1 20S     -0.218500
      8 C1          0.8680    0.8670   -4.7720 c3        1 20S     -0.034000
      9 C2          1.0530    1.5130   -3.3910 c3        1 20S     -0.042000
     10 C3         -0.5350   -0.1000   -6.9330 c1        1 20S      0.055000
     11 C13        -0.7530   -0.7550   -5.5630 c3        1 20S     -0.041000
     12 O2          0.1310   -0.3380   -4.5390 os        1 20S     -0.278000
     13 O4          2.2000    1.0420   -2.7120 oh        1 20S     -0.337000
     14 C18        -0.6260   -2.2780   -5.6880 c1        1 20S      0.055000
     15 O3          0.5040   -2.8140   -5.4070 oh        1 20S     -0.147000
     16 O5         -1.5780    0.2030   -7.6180 oh        1 20S     -0.147000
     17 C21        -2.8620   -1.2140   -4.4410 c3        1 20S      0.153000
     18 C24        -4.3160   -0.7960   -4.7490 c3        1 20S      0.019000
     19 C27        -4.6630    0.5390   -4.0780 c3        1 20S     -0.040000
     20 C16        -4.2630    0.5290   -2.5920 c3        1 20S     -0.012000
     21 C29        -2.7770    0.1630   -2.4880 c3        1 20S     -0.096000
     22 O9         -4.4110   -0.6840   -6.1590 oh        1 20S     -0.332000
     23 O11        -6.0600    0.7210   -4.2410 oh        1 20S     -0.336000
     24 O13        -4.5580    1.7870   -2.0220 oh        1 20S     -0.311000
     25 O15        -2.5420   -1.1190   -3.0720 os        1 20S     -0.256000
     26 O6         -2.0160   -0.2950   -5.1080 os        1 20S     -0.318000
     27 C32        -2.3580    0.0270   -1.0200 c1        1 20S      0.135000
     28 O17        -1.0530    0.2740   -0.9450 os        1 20S     -0.271000
     29 C31         8.3970    0.2700    5.2520 c1        1 20S     -0.218500
     30 O7         -1.0270    0.8540    1.2160 o         1 20S     -0.261000
     31 H71         3.3570   -0.7750   -1.7560 ha        1 20S      0.005167
     32 H72         3.9100   -0.5770   -2.0950 ha        1 20S      0.005167
     33 H81         0.7940   -1.4470    0.1410 hc        1 20S      0.138000
     34 H82         1.4540    0.0330   -0.6740 hc        1 20S      0.138000
     35 H91         1.9140    1.0830    1.5590 hc        1 20S      0.096500
     36 H92         1.1760   -0.3280    2.4080 hc        1 20S      0.096500
     37 H101        2.9040   -1.8540    1.4230 hc        1 20S      0.083000
     38 H102        3.6200   -0.4760    0.5000 hc        1 20S      0.083000
     39 H4          3.3780   -0.6470    3.5860 hc        1 20S      0.080500
     40 H11         4.1100    0.7190    2.6590 hc        1 20S      0.080500
     41 H5          5.8240   -0.8540    1.6930 hc        1 20S      0.075000
     42 H12         5.0940   -2.2210    2.6280 hc        1 20S      0.075000
     43 H1          2.9330    1.3200   -5.3260 h1        1 20S      0.104750
     44 H2          0.1930    1.2220   -2.7210 h1        1 20S      0.104750
     45 H3          1.0920    2.6270   -3.5090 h1        1 20S      0.104750
     46 HO4         2.9740    1.4520   -3.1190 ho        1 20S      0.210500
     47 HO1         2.6840   -0.6720   -3.9680 ho        1 20S      0.210500
     48 H181       -0.4970   -2.3200   -8.0960 ha        1 20S      0.005167
     49 H182        0.1470   -2.1040   -8.0730 ha        1 20S      0.005167
     50 HO3         1.2270   -2.2070   -5.1090 ho        1 20S      0.233000
     51 HO5        -2.4590    0.0040   -7.2100 ho        1 20S      0.233000
     52 H21        -2.6710   -2.2890   -4.7190 h2        1 20S      0.172000
     53 H24        -5.0090   -1.6010   -4.3770 h1        1 20S      0.113000
     54 H27        -4.1240    1.3750   -4.6110 h1        1 20S      0.094000
     55 H16        -4.8940   -0.2010   -2.0110 h1        1 20S      0.155000
     56 H29        -2.1610    0.9340   -3.0370 h1        1 20S      0.090000
     57 HO9        -5.3100   -0.3810   -6.3460 ho        1 20S      0.228000
     58 HO11       -6.3390    1.3700   -3.5790 ho        1 20S      0.227000
     59 HO13       -3.9320    2.4290   -2.3810 ho        1 20S      0.200000
     60 H321       -2.7050    2.3440   -0.4160 ha        1 20S      0.005167
     61 H322       -3.0270    2.0290    0.0930 ha        1 20S      0.005167
     62 H311        5.8680   -0.8350    3.5050 hc        1 20S      0.075000
     63 H312        6.5070   -0.8200    5.8260 ha        1 20S      0.219000
     64 H313        9.2860    0.7830    4.9840 ha        1 20S      0.219000
     65 C17         2.1890    0.4890   -5.4480 c3        1 20S     -0.042000
     66 O1          2.7190   -0.7180   -4.9350 oh        1 20S     -0.337000
     67 H171        0.2870    1.5690   -5.4290 h1        1 20S      0.109000
     68 H172        2.0160    0.2840   -6.5410 h1        1 20S      0.104750
@<TRIPOS>BOND
     1    1    2 1   
     2    1   28 1   
     3    1   30 1   
     4    2    3 1   
     5    2   33 1   
     6    2   34 1   
     7    3    4 1   
     8    3   35 1   
     9    3   36 1   
    10    4    5 1   
    11    4   37 1   
    12    4   38 1   
    13    5    6 1   
    14    5   39 1   
    15    5   40 1   
    16    6   41 1   
    17    6   42 1   
    18    6   62 1   
    19    7   29 1   
    20    7   63 1   
    21    8    9 1   
    22    8   12 1   
    23    8   65 1   
    24    8   67 1   
    25    9   13 1   
    26    9   44 1   
    27    9   45 1   
    28   10   11 1   
    29   10   16 1   
    30   11   12 1   
    31   11   14 1   
    32   11   26 1   
    33   13   46 1   
    34   14   15 1   
    35   15   50 1   
    36   16   51 1   
    37   17   18 1   
    38   17   25 1   
    39   17   26 1   
    40   17   52 1   
    41   18   19 1   
    42   18   22 1   
    43   18   53 1   
    44   19   20 1   
    45   19   23 1   
    46   19   54 1   
    47   20   21 1   
    48   20   24 1   
    49   20   55 1   
    50   21   25 1   
    51   21   27 1   
    52   21   56 1   
    53   22   57 1   
    54   23   58 1   
    55   24   59 1   
    56   27   28 1   
    57   29   64 1   
    58   31   32 1   
    59   43   65 1   
    60   47   66 1   
    61   48   49 1   
    62   60   61 1   
    63   65   66 1   
    64   65   68 1   
@<TRIPOS>SUBSTRUCTURE
     1 20S         1 TEMP              0 ****  ****    0 ROOT
