@<TRIPOS>MOLECULE
molecule
   70    74     1     0     0
SMALL
bcc


@<TRIPOS>ATOM
      1 N1           0.0000     0.0000     0.0000 ns         1 20U      -0.452100
      2 C9           1.3960     0.0000     0.0000 ca         1 20U       0.072600
      3 C7           2.3060     0.0000     1.0540 ca         1 20U      -0.148000
      4 C6           3.6640     0.0000     0.8000 ca         1 20U       0.067400
      5 Cl1          4.7900    -0.0000     2.1210 cl         1 20U      -0.082400
      6 C2          -0.5080    -0.0050    -1.2470 c          1 20U       0.730500
      7 O2          -1.6820    -0.0050    -1.5510 o          1 20U      -0.595500
      8 C3           0.6640    -0.0130    -2.1910 c3         1 20U      -0.128700
      9 C11          0.6400     1.2050    -3.1230 c3         1 20U       0.174500
     10 C21         -0.7910     1.7180    -3.2970 c3         1 20U      -0.068400
     11 C22         -0.7610     3.1070    -3.9370 c3         1 20U      -0.069000
     12 C25         -0.0350     4.0810    -3.0080 c3         1 20U      -0.079100
     13 C24         -0.0250     3.0360    -5.2770 c3         1 20U      -0.079100
     14 C23         -2.1930     3.5930    -4.1670 c3         1 20U      -0.079100
     15 N12          1.1730     0.6930    -4.4150 n7         1 20U      -0.758200
     16 C14          0.6390    -1.2450    -3.1040 c3         1 20U      -0.019400
     17 C31         -0.5890    -2.0760    -2.8320 ca         1 20U      -0.149300
     18 C36         -1.8000    -1.7230    -3.3960 ca         1 20U      -0.070000
     19 C35         -2.9280    -2.4840    -3.1470 ca         1 20U      -0.127000
     20 C34         -2.8450    -3.5990    -2.3340 ca         1 20U      -0.086000
     21 C32         -0.5020    -3.1950    -2.0220 ca         1 20U       0.142900
     22 F1           0.6830    -3.5440    -1.4750 f          1 20U      -0.124900
     23 C33         -1.6330    -3.9540    -1.7690 ca         1 20U      -0.019600
     24 Cl2         -1.5280    -5.3540    -0.7470 cl         1 20U      -0.075400
     25 C13          0.5930    -0.6700    -4.5380 c3         1 20U       0.076500
     26 C41          1.4270    -1.5120    -5.4690 c          1 20U       0.671100
     27 N42          0.9050    -2.6280    -6.0170 ns         1 20U      -0.474100
     28 C43          1.7040    -3.4570    -6.8050 ca         1 20U       0.144600
     29 C48          1.5000    -4.8330    -6.7910 ca         1 20U      -0.146000
     30 C44          2.6980    -2.9050    -7.6060 ca         1 20U      -0.146000
     31 C45          3.4880    -3.7210    -8.3850 ca         1 20U      -0.046500
     32 C46          3.2900    -5.1030    -8.3700 ca         1 20U      -0.246600
     33 C51          4.1350    -5.9810    -9.2040 c          1 20U       0.507700
     34 O51          5.0050    -5.5000    -9.9050 o          1 20U      -0.427100
     35 N51          3.9420    -7.3150    -9.1890 nz         1 20U      -0.677400
     36 C47          2.2870    -5.6540    -7.5680 ca         1 20U      -0.046500
     37 O41          2.5660    -1.1860    -5.7260 o          1 20U      -0.575100
     38 C8           1.8780    -0.0010    -1.3060 ca         1 20U      -0.151300
     39 C4           3.2320    -0.0010    -1.5560 ca         1 20U      -0.070000
     40 C5           4.1300    -0.0000    -0.5030 ca         1 20U      -0.143000
     41 H1          -0.5590     0.0040     0.8300 hn         1 20U       0.348500
     42 H2           1.9480     0.0000     2.0770 ha         1 20U       0.154000
     43 H3           1.2830     1.9860    -2.7350 h1         1 20U       0.093700
     44 H4          -1.2740     1.7760    -2.3290 hc         1 20U       0.060200
     45 H5          -1.3430     1.0380    -3.9350 hc         1 20U       0.060200
     46 H6          -0.3220     3.8840    -1.9820 hc         1 20U       0.035922
     47 H7           1.0350     3.9520    -3.1140 hc         1 20U       0.035922
     48 H8          -0.3040     5.0980    -3.2690 hc         1 20U       0.035922
     49 H9          -0.2130     3.9420    -5.8400 hc         1 20U       0.035922
     50 H10          1.0390     2.9340    -5.1000 hc         1 20U       0.035922
     51 H11         -0.3810     2.1810    -5.8400 hc         1 20U       0.035922
     52 H12         -2.7200     3.6250    -3.2210 hc         1 20U       0.035922
     53 H13         -2.1720     4.5850    -4.6030 hc         1 20U       0.035922
     54 H14         -2.7020     2.9130    -4.8410 hc         1 20U       0.035922
     55 H15          2.1700     0.6280    -4.3630 hn         1 20U       0.372800
     56 H17          1.5380    -1.8340    -2.9650 hc         1 20U       0.088700
     57 H18         -1.8560    -0.8780    -4.0710 ha         1 20U       0.149000
     58 H19         -3.8740    -2.2130    -3.5980 ha         1 20U       0.150000
     59 H20         -3.7220    -4.2110    -2.1620 ha         1 20U       0.157000
     60 H21         -0.4310    -0.6120    -4.8860 h1         1 20U       0.099700
     61 H22         -0.0680    -2.8340    -5.9020 hn         1 20U       0.347500
     62 H23          0.7230    -5.2590    -6.1690 ha         1 20U       0.182500
     63 H24          2.8510    -1.8320    -7.6170 ha         1 20U       0.182500
     64 H25          4.2620    -3.2910    -9.0090 ha         1 20U       0.141500
     65 H26          3.0110    -7.5210    -9.4910 hn         1 20U       0.476133
     66 H27          4.0760    -7.6600    -8.2590 hn         1 20U       0.476133
     67 H28          2.1290    -6.7260    -7.5560 ha         1 20U       0.141500
     68 H29          3.5950    -0.0010    -2.5760 ha         1 20U       0.139000
     69 H30          5.1950    -0.0000    -0.6990 ha         1 20U       0.154000
     70 H513         4.5870    -7.7520    -9.8170 hn         1 20U       0.476133
@<TRIPOS>BOND
     1    14    11 1
     2    12    11 1
     3    11    10 1
     4    11    13 1
     5    10     9 1
     6     7     6 2
     7    15     9 1
     8    15    25 1
     9     6     1 1
    10     6     8 1
    11     9     8 1
    12     1     2 1
    13    30    31 ar
    14    30    28 ar
    15    31    32 ar
    16     8    38 1
    17     8    16 1
    18     2     3 ar
    19     2    38 ar
    20    25    26 1
    21    25    16 1
    22    27    28 1
    23    27    26 1
    24    35    33 1
    25     3     4 ar
    26    28    29 ar
    27    38    39 ar
    28    26    37 2
    29    16    17 1
    30    32    33 1
    31    32    36 ar
    32    18    17 ar
    33    18    19 ar
    34    33    34 2
    35     4     5 1
    36     4    40 ar
    37    39    40 ar
    38    29    36 ar
    39    17    21 ar
    40    19    20 ar
    41    21    22 1
    42    21    23 ar
    43    20    23 ar
    44    23    24 1
    45     1    41 1
    46     3    42 1
    47     9    43 1
    48    10    44 1
    49    10    45 1
    50    12    46 1
    51    12    47 1
    52    12    48 1
    53    13    49 1
    54    13    50 1
    55    13    51 1
    56    14    52 1
    57    14    53 1
    58    14    54 1
    59    15    55 1
    60    16    56 1
    61    18    57 1
    62    19    58 1
    63    20    59 1
    64    25    60 1
    65    27    61 1
    66    29    62 1
    67    30    63 1
    68    31    64 1
    69    35    65 1
    70    35    66 1
    71    36    67 1
    72    39    68 1
    73    40    69 1
    74    70    35 1
@<TRIPOS>SUBSTRUCTURE
     1 20U         1 TEMP              0 ****  ****    0 ROOT
