@<TRIPOS>MOLECULE
20V
   50    52     1     0     0
SMALL
bcc


@<TRIPOS>ATOM
      1 OAK          0.0000     0.0000     0.0000 o          1 20V      -0.733500
      2 PBK          1.6100     0.0000     0.0000 p5         1 20V       0.656900
      3 OAL          2.1040     0.0000     1.3950 o          1 20V      -0.733500
      4 OAC          2.1460    -1.3140    -0.7600 o          1 20V      -0.733500
      5 OAX          2.1460     1.3150    -0.7590 os         1 20V      -0.461200
      6 CAT          1.9280     2.6400    -0.2700 c3         1 20V       0.304700
      7 CBE          2.5570     3.6340    -1.2130 ca         1 20V      -0.035600
      8 CBC          1.8610     4.0800    -2.3410 ca         1 20V      -0.249600
      9 CAO          0.5040     3.5930    -2.6360 c          1 20V       0.706500
     10 OAB         -0.0460     3.9180    -3.6670 o          1 20V      -0.649100
     11 CBA          2.4970     5.0080    -3.1870 ca         1 20V       0.038800
     12 OAH          1.8670     5.4730    -4.2940 oh         1 20V      -0.488100
     13 CAY          3.7810     5.4430    -2.8700 ca         1 20V       0.255600
     14 CAA          4.4710     6.4380    -3.7690 c3         1 20V      -0.020400
     15 NAW          4.4010     5.0000    -1.8010 nb         1 20V      -0.535000
     16 CBD          3.8380     4.1270    -0.9700 ca         1 20V       0.484300
     17 NAV          4.5300     3.7000     0.1280 ne         1 20V      -0.220000
     18 NAU          5.7190     4.1430     0.3540 nf         1 20V      -0.147400
     19 CAZ          6.4110     3.7160     1.4510 ca         1 20V       0.041400
     20 CAR          7.6890     4.2000     1.6930 ca         1 20V      -0.062000
     21 CBH          8.3910     3.7570     2.8220 ca         1 20V       0.028000
     22 CBG          9.6880     4.2250     3.1010 ca         1 20V      -0.093500
     23 SBM         10.4610     5.3870     2.0250 s6         1 20V       1.038100
     24 OAN         11.0530     4.6020     0.8640 o          1 20V      -0.669867
     25 OAG          9.4180     6.1840     1.4800 o          1 20V      -0.669867
     26 OAF         11.5590     5.9310     2.7440 o          1 20V      -0.669867
     27 CAQ         10.3440     3.7760     4.2060 ca         1 20V      -0.006000
     28 CBB          9.7480     2.8570     5.0680 ca         1 20V      -0.527200
     29 NBJ         10.4900     2.3910     6.2610 no         1 20V       1.066200
     30 OAJ          9.9780     1.5870     7.0200 o          1 20V      -0.501500
     31 OAI         11.6110     2.8090     6.4830 o          1 20V      -0.501500
     32 CAS          8.4940     2.3820     4.8300 ca         1 20V       0.033000
     33 CBI          7.7850     2.8220     3.7000 ca         1 20V      -0.018000
     34 CBF          6.4880     2.3500     3.4280 ca         1 20V      -0.086500
     35 SBL          5.7290     1.1880     4.5140 s6         1 20V       1.010100
     36 OAM          6.1380     1.5410     5.8290 o          1 20V      -0.643200
     37 OAE          4.2270     1.4280     4.4530 o          1 20V      -0.643200
     38 OAD          5.9530    -0.0960     3.9480 o          1 20V      -0.643200
     39 CAP          5.8190     2.7920     2.3340 ca         1 20V       0.008000
     40 H3           2.3760     2.7400     0.7120 h1         1 20V      -0.005800
     41 H4           0.8640     2.8290    -0.2030 h1         1 20V      -0.005800
     42 H5          -0.0130     2.9640    -1.9210 h4         1 20V       0.026200
     43 H6           1.3960     6.2610    -4.0800 ho         1 20V       0.377000
     44 H7           5.4960     6.5690    -3.4440 hc         1 20V      -0.005967
     45 H8           4.4600     6.0720    -4.7890 hc         1 20V      -0.005967
     46 H9           3.9520     7.3880    -3.7210 hc         1 20V      -0.005967
     47 H10          8.1900     4.8030     0.9460 ha         1 20V       0.186000
     48 H11         11.3430     4.1370     4.4180 ha         1 20V       0.130000
     49 H12          8.0450     1.6690     5.5100 ha         1 20V       0.193000
     50 H13          4.8170     2.4310     2.1380 ha         1 20V       0.185000
@<TRIPOS>BOND
     1     1     2 1   
     2     2     3 1   
     3     2     4 1   
     4     2     5 1   
     5     5     6 1   
     6     6     7 1   
     7     6    40 1   
     8     6    41 1   
     9     7     8 ar  
    10     7    16 ar  
    11     8     9 1   
    12     8    11 ar  
    13     9    10 2   
    14     9    42 1   
    15    11    12 1   
    16    11    13 ar  
    17    12    43 1   
    18    13    14 1   
    19    13    15 ar  
    20    14    44 1   
    21    14    45 1   
    22    14    46 1   
    23    15    16 ar  
    24    16    17 1   
    25    17    18 2   
    26    18    19 1   
    27    19    20 ar  
    28    19    39 ar  
    29    20    21 ar  
    30    20    47 1   
    31    21    22 ar  
    32    21    33 ar  
    33    22    23 1   
    34    22    27 ar  
    35    23    24 1   
    36    23    25 1   
    37    23    26 1   
    38    27    28 ar  
    39    27    48 1   
    40    28    29 1   
    41    28    32 ar  
    42    29    30 1   
    43    29    31 1   
    44    32    33 ar  
    45    32    49 1   
    46    33    34 ar  
    47    34    35 1   
    48    34    39 ar  
    49    35    36 1   
    50    35    37 1   
    51    35    38 1   
    52    39    50 1   
@<TRIPOS>SUBSTRUCTURE
     1 20V         1 TEMP              0 ****  ****    0 ROOT
