@<TRIPOS>MOLECULE
molecule
   50    52     1     0     0
SMALL
bcc


@<TRIPOS>ATOM
      1 OAK          0.0000     0.0000     0.0000 o          1 20V      -0.892167
      2 PBK          1.6100     0.0000     0.0000 p5         1 20V       1.154900
      3 OAL          2.1040     0.0000     1.3950 o          1 20V      -0.892167
      4 OAC          2.1460    -1.3140    -0.7600 o          1 20V      -0.892167
      5 OAX          2.1460     1.3150    -0.7590 os         1 20V      -0.560200
      6 CAT          1.9280     2.6400    -0.2700 c3         1 20V       0.243700
      7 CBE          2.5570     3.6340    -1.2130 ca         1 20V      -0.050600
      8 CBC          1.8610     4.0800    -2.3410 ca         1 20V      -0.201600
      9 CAO          0.5040     3.5930    -2.6360 c          1 20V       0.607500
     10 OAB         -0.0460     3.9180    -3.6670 o          1 20V      -0.592100
     11 CBA          2.4970     5.0080    -3.1870 ca         1 20V       0.003800
     12 OAH          1.8670     5.4730    -4.2940 oh         1 20V      -0.512100
     13 CAY          3.7810     5.4430    -2.8700 ca         1 20V       0.350600
     14 CAA          4.4710     6.4380    -3.7690 c3         1 20V      -0.125400
     15 NAW          4.4010     5.0000    -1.8010 nb         1 20V      -0.669000
     16 CBD          3.8380     4.1270    -0.9700 ca         1 20V       0.588300
     17 NAV          4.5300     3.7000     0.1280 ne         1 20V      -0.267000
     18 NAU          5.7190     4.1430     0.3540 nf         1 20V      -0.179400
     19 CAZ          6.4110     3.7160     1.4510 ca         1 20V       0.080400
     20 CAR          7.6890     4.2000     1.6930 ca         1 20V      -0.050000
     21 CBH          8.3910     3.7570     2.8220 ca         1 20V       0.016000
     22 CBG          9.6880     4.2250     3.1010 ca         1 20V      -0.246500
     23 SBM         10.4610     5.3870     2.0250 s6         1 20V       1.336100
     24 OAN         11.0530     4.6020     0.8640 o          1 20V      -0.719533
     25 OAG          9.4180     6.1840     1.4800 o          1 20V      -0.719533
     26 OAF         11.5590     5.9310     2.7440 o          1 20V      -0.719533
     27 CAQ         10.3440     3.7760     4.2060 ca         1 20V      -0.041000
     28 CBB          9.7480     2.8570     5.0680 ca         1 20V      -0.203200
     29 NBJ         10.4900     2.3910     6.2610 no         1 20V       0.302200
     30 OAJ          9.9780     1.5870     7.0200 o          1 20V      -0.259500
     31 OAI         11.6110     2.8090     6.4830 o          1 20V      -0.259500
     32 CAS          8.4940     2.3820     4.8300 ca         1 20V      -0.015000
     33 CBI          7.7850     2.8220     3.7000 ca         1 20V       0.008000
     34 CBF          6.4880     2.3500     3.4280 ca         1 20V      -0.245500
     35 SBL          5.7290     1.1880     4.5140 s6         1 20V       1.297100
     36 OAM          6.1380     1.5410     5.8290 o          1 20V      -0.693200
     37 OAE          4.2270     1.4280     4.4530 o          1 20V      -0.693200
     38 OAD          5.9530    -0.0960     3.9480 o          1 20V      -0.693200
     39 CAP          5.8190     2.7920     2.3340 ca         1 20V      -0.010000
     40 H3           2.3760     2.7400     0.7120 h1         1 20V       0.037200
     41 H4           0.8640     2.8290    -0.2030 h1         1 20V       0.037200
     42 H5          -0.0170     2.9730    -1.9170 h4         1 20V       0.062200
     43 H6           1.3750     6.2470    -4.0740 ho         1 20V       0.395000
     44 H7           3.9660     7.3940    -3.7040 hc         1 20V       0.033033
     45 H8           4.4400     6.0820    -4.7920 hc         1 20V       0.033033
     46 H9           5.5020     6.5520    -3.4570 hc         1 20V       0.033033
     47 H10          8.1900     4.8030     0.9460 ha         1 20V       0.199000
     48 H11         11.3430     4.1370     4.4180 ha         1 20V       0.156000
     49 H12          8.0450     1.6690     5.5100 ha         1 20V       0.211000
     50 H13          4.8170     2.4300     2.1370 ha         1 20V       0.216000
@<TRIPOS>BOND
     1    26    23 1   
     2    25    23 1   
     3    23    24 1   
     4    23    22 1   
     5    22    27 ar  
     6    22    21 ar  
     7    27    28 ar  
     8    30    29 1   
     9    20    21 ar  
    10    20    19 ar  
    11    21    33 ar  
    12    14    13 1   
    13    28    29 1   
    14    28    32 ar  
    15    29    31 1   
    16    15    13 ar  
    17    15    16 ar  
    18    13    11 ar  
    19    18    19 1   
    20    18    17 2   
    21    19    39 ar  
    22    33    32 ar  
    23    33    34 ar  
    24    17    16 1   
    25    16     7 ar  
    26    11    12 1   
    27    11     8 ar  
    28     7     8 ar  
    29     7     6 1   
    30     8     9 1   
    31    39    34 ar  
    32    10     9 2   
    33    34    35 1   
    34     6     5 1   
    35    36    35 1   
    36    35    38 1   
    37    35    37 1   
    38     5     2 1   
    39     3     2 1   
    40     2     4 1   
    41     2     1 1   
    42     6    40 1   
    43     6    41 1   
    44     9    42 1   
    45    12    43 1   
    46    14    44 1   
    47    14    45 1   
    48    14    46 1   
    49    20    47 1   
    50    27    48 1   
    51    32    49 1   
    52    39    50 1   
@<TRIPOS>SUBSTRUCTURE
     1 20V         1 TEMP              0 ****  ****    0 ROOT
