@<TRIPOS>MOLECULE
molecule
   71    75     1     0     0
SMALL
bcc


@<TRIPOS>ATOM
      1 C2           0.0000     0.0000     0.0000 c          1 20W       0.734500
      2 C3           1.5020     0.0000     0.0000 c3         1 20W      -0.083700
      3 C5           2.2320     0.0020     3.9430 cc         1 20W       0.091300
      4 C6           0.9620     0.0010     3.5560 cd         1 20W      -0.152000
      5 C7           1.8910     0.0000     1.4570 cc         1 20W      -0.136400
      6 C8           0.7480     0.0000     2.1670 cd         1 20W       0.033600
      7 C11          2.0700     1.2180    -0.7320 c3         1 20W       0.175500
      8 C13          2.4460    -0.6680    -2.1160 c3         1 20W       0.047500
      9 C14          2.0640    -1.2330    -0.7220 c3         1 20W      -0.033400
     10 C21          0.9330     2.0410    -1.3400 c3         1 20W      -0.065400
     11 C22          1.5030     3.3170    -1.9610 c3         1 20W      -0.066000
     12 C23          0.3650     4.1410    -2.5680 c3         1 20W      -0.078100
     13 C24          2.2060     4.1400    -0.8790 c3         1 20W      -0.078100
     14 C25          2.5060     2.9490    -3.0540 c3         1 20W      -0.078100
     15 N1          -0.3710    -0.0000     1.2930 ns         1 20W      -0.452100
     16 Cl1          2.7740     0.0030     5.5930 cl         1 20W      -0.021400
     17 O2          -0.7300     0.0030    -0.9690 o          1 20W      -0.589500
     18 N12          2.9490     0.6960    -1.8060 n7         1 20W      -0.754200
     19 C31          1.0110    -2.3040    -0.8510 ca         1 20W      -0.116300
     20 C36          0.5050    -2.9150     0.2810 ca         1 20W      -0.097000
     21 C35         -0.4610    -3.8980     0.1640 ca         1 20W      -0.117000
     22 C34         -0.9220    -4.2700    -1.0850 ca         1 20W      -0.092000
     23 C32          0.5460    -2.6710    -2.1020 ca         1 20W       0.112900
     24 F1           1.0360    -2.0710    -3.2090 f          1 20W      -0.126900
     25 C33         -0.4170    -3.6600    -2.2190 ca         1 20W       0.002400
     26 Cl2         -1.0020    -4.1230    -3.7870 cl         1 20W      -0.069400
     27 C41          3.5280    -1.5000    -2.7530 c          1 20W       0.672100
     28 N42          3.3660    -2.8330    -2.8810 ns         1 20W      -0.459100
     29 C43          4.3710    -3.6050    -3.4670 ca         1 20W       0.129600
     30 C48          5.2430    -3.0290    -4.3820 ca         1 20W      -0.114000
     31 C44          4.5010    -4.9520    -3.1270 ca         1 20W       0.100100
     32 O49          3.6490    -5.5130    -2.2270 os         1 20W      -0.318900
     33 C50          3.8400    -6.8960    -1.9280 c3         1 20W       0.123700
     34 C45          5.4950    -5.7170    -3.7060 ca         1 20W      -0.108000
     35 C46          6.3690    -5.1380    -4.6300 ca         1 20W      -0.218600
     36 C51          7.4320    -5.9510    -5.2520 c          1 20W       0.508700
     37 O51          7.5480    -7.1270    -4.9590 o          1 20W      -0.438100
     38 N51          8.2740    -5.3920    -6.1440 nz         1 20W      -0.676400
     39 C47          6.2390    -3.7870    -4.9580 ca         1 20W      -0.118000
     40 O41          4.5450    -0.9720    -3.1520 o          1 20W      -0.583100
     41 S4           3.2820     0.0010     2.5350 ss         1 20W      -0.052800
     42 H1           0.1430     0.0020     4.2650 ha         1 20W       0.169000
     43 H2           2.6470     1.8250    -0.0450 h1         1 20W       0.080700
     44 H3           1.5720    -0.6130    -2.7550 h1         1 20W       0.166700
     45 H4           2.9420    -1.6080    -0.2100 hc         1 20W       0.081700
     46 H5           0.4350     1.4580    -2.1050 hc         1 20W       0.062700
     47 H6           0.2220     2.3020    -0.5650 hc         1 20W       0.062700
     48 H7           0.7670     5.0510    -2.9960 hc         1 20W       0.035256
     49 H8          -0.3520     4.3910    -1.7950 hc         1 20W       0.035256
     50 H9          -0.1250     3.5640    -3.3420 hc         1 20W       0.035256
     51 H10          2.3270     5.1610    -1.2230 hc         1 20W       0.035256
     52 H11          1.6110     4.1320     0.0250 hc         1 20W       0.035256
     53 H12          3.1800     3.7110    -0.6740 hc         1 20W       0.035256
     54 H13          3.4420     2.6470    -2.5990 hc         1 20W       0.035256
     55 H14          2.1120     2.1320    -3.6460 hc         1 20W       0.035256
     56 H15          2.6760     3.8070    -3.6930 hc         1 20W       0.035256
     57 H16         -1.3230    -0.0010     1.6020 hn         1 20W       0.345500
     58 H17          3.8890     0.6360    -1.4670 hn         1 20W       0.359800
     59 H19          0.8650    -2.6240     1.2600 ha         1 20W       0.155000
     60 H20         -0.8570    -4.3760     1.0520 ha         1 20W       0.152000
     61 H21         -1.6770    -5.0420    -1.1750 ha         1 20W       0.160000
     62 H22          2.5230    -3.2670    -2.5610 hn         1 20W       0.360500
     63 H23          5.1440    -1.9810    -4.6380 ha         1 20W       0.211000
     64 H24          4.8330    -7.0440    -1.5200 h1         1 20W       0.055033
     65 H25          3.7320    -7.4810    -2.8330 h1         1 20W       0.055033
     66 H26          3.1010    -7.2140    -1.2020 h1         1 20W       0.055033
     67 H27          5.5970    -6.7630    -3.4440 ha         1 20W       0.171000
     68 H28          7.7510    -5.0380    -6.9200 hn         1 20W       0.476133
     69 H29          8.9240    -6.0810    -6.4660 hn         1 20W       0.476133
     70 H30          6.9170    -3.3360    -5.6730 ha         1 20W       0.111000
     71 H513         8.7720    -4.6420    -5.7070 hn         1 20W       0.476133
@<TRIPOS>BOND
     1    38    36 1   
     2    36    35 1   
     3    36    37 2   
     4    39    35 ar  
     5    39    30 ar  
     6    26    25 1   
     7    35    34 ar  
     8    30    29 ar  
     9    24    23 1   
    10    16     3 1   
    11    40    27 2   
    12    41     3 1   
    13    41     5 1   
    14    25    23 ar  
    15    25    22 ar  
    16    23    19 ar  
    17    34    31 ar  
    18    29    31 ar  
    19    29    28 1   
    20     3     4 2   
    21    31    32 1   
    22    27    28 1   
    23    27     8 1   
    24    22    21 ar  
    25    19     9 1   
    26    19    20 ar  
    27     9     8 1   
    28     9     2 1   
    29     5     2 1   
    30     5     6 2   
    31     8    18 1   
    32     4     6 1   
    33     2     7 1   
    34     2     1 1   
    35    32    33 1   
    36    13    11 1   
    37    21    20 ar  
    38     7    18 1   
    39     7    10 1   
    40     6    15 1   
    41     1    15 1   
    42     1    17 2   
    43    11    10 1   
    44    11    14 1   
    45    11    12 1   
    46     4    42 1   
    47     7    43 1   
    48     8    44 1   
    49     9    45 1   
    50    10    46 1   
    51    10    47 1   
    52    12    48 1   
    53    12    49 1   
    54    12    50 1   
    55    13    51 1   
    56    13    52 1   
    57    13    53 1   
    58    14    54 1   
    59    14    55 1   
    60    14    56 1   
    61    15    57 1   
    62    18    58 1   
    63    20    59 1   
    64    21    60 1   
    65    22    61 1   
    66    28    62 1   
    67    30    63 1   
    68    33    64 1   
    69    33    65 1   
    70    33    66 1   
    71    34    67 1   
    72    38    68 1   
    73    38    69 1   
    74    39    70 1   
    75    71    38 1   
@<TRIPOS>SUBSTRUCTURE
     1 20W         1 TEMP              0 ****  ****    0 ROOT
