@<TRIPOS>MOLECULE
molecule
   42    43     1     0     0
SMALL
bcc


@<TRIPOS>ATOM
      1 C1           0.0000     0.0000     0.0000 c3         1 20X       0.308500
      2 F1           1.0180     3.1870    -9.0180 f          1 20X      -0.134900
      3 N1          -0.4890     0.0580    -1.3790 ns         1 20X      -0.485900
      4 S1          -2.4760    -1.4960    -0.5490 s          1 20X      -0.669400
      5 C2           1.5310     0.0000     0.0000 c3         1 20X       0.096100
      6 N2          -2.0650    -0.5430    -2.9930 ns         1 20X      -0.293900
      7 O2           2.0090    -1.1670    -0.6730 oh         1 20X      -0.588800
      8 C3           2.0330     0.0000     1.4470 c3         1 20X       0.114100
      9 N3          -1.3600     0.1930    -3.9550 n2         1 20X      -0.495300
     10 O3          -2.0880     2.3070     2.7950 oh         1 20X      -0.590800
     11 C4           1.4520     1.2140     2.1780 c3         1 20X       0.099100
     12 O4           1.8560     1.1840     3.5490 oh         1 20X      -0.598800
     13 C5          -0.0770     1.1660     2.0950 c3         1 20X       0.155100
     14 O5          -0.4760     1.1370     0.7230 os         1 20X      -0.411600
     15 C6          -0.6630     2.4070     2.7700 c3         1 20X       0.153400
     16 O6           3.4600     0.0740     1.4580 oh         1 20X      -0.607800
     17 C7          -1.6150    -0.5970    -1.7240 cs         1 20X       0.649400
     18 C8          -1.7930     0.2450    -5.1780 ce         1 20X       0.428800
     19 C9          -1.0520     1.0200    -6.1900 ca         1 20X      -0.155900
     20 C10         -1.5150     1.0780    -7.5070 ca         1 20X      -0.070500
     21 C11         -0.8190     1.8050    -8.4490 ca         1 20X      -0.173000
     22 C12          0.3390     2.4770    -8.0920 ca         1 20X       0.152900
     23 C13          0.8040     2.4230    -6.7870 ca         1 20X      -0.173000
     24 C14          0.1120     1.7050    -5.8350 ca         1 20X      -0.070500
     25 H1          -0.3590    -0.9040     0.4770 h2         1 20X       0.122700
     26 HN1          0.0030     0.6010    -2.0620 hn         1 20X       0.333500
     27 H2           1.8910     0.8880    -0.5060 h1         1 20X       0.049700
     28 HN2         -2.8930    -1.0410    -3.2520 hn         1 20X       0.351500
     29 HO2          2.7150    -0.9290    -1.2510 ho         1 20X       0.412000
     30 H3           1.7080    -0.9080     1.9420 h1         1 20X       0.069700
     31 HO3         -2.4420     2.9910     3.3390 ho         1 20X       0.402000
     32 H4           1.8100     2.1230     1.7090 h1         1 20X       0.053700
     33 HO4          2.5530     1.8050     3.6850 ho         1 20X       0.413000
     34 H5          -0.4360     0.2740     2.5930 h1         1 20X       0.076700
     35 H6          -0.2890     2.4770     3.7850 h1         1 20X       0.034200
     36 H6A         -0.3730     3.2920     2.2160 h1         1 20X       0.034200
     37 HO6          3.8100    -0.6620     1.9320 ho         1 20X       0.417000
     38 H8          -2.6990    -0.2820    -5.4550 h4         1 20X      -0.001200
     39 H10         -2.4200     0.5520    -7.7870 ha         1 20X       0.146000
     40 H11         -1.1770     1.8500    -9.4700 ha         1 20X       0.151500
     41 H13          1.7070     2.9550    -6.5120 ha         1 20X       0.151500
     42 H14          0.4760     1.6630    -4.8150 ha         1 20X       0.146000
@<TRIPOS>BOND
     1     5     1 1   
     2     1    14 1   
     3     1     3 1   
     4     1    25 1   
     5    22     2 1   
     6     3    17 1   
     7     3    26 1   
     8    17     4 2   
     9     8     5 1   
    10     7     5 1   
    11     5    27 1   
    12    17     6 1   
    13     6     9 1   
    14     6    28 1   
    15     7    29 1   
    16    16     8 1   
    17     8    11 1   
    18     8    30 1   
    19     9    18 2   
    20    10    15 1   
    21    10    31 1   
    22    12    11 1   
    23    11    13 1   
    24    11    32 1   
    25    12    33 1   
    26    13    15 1   
    27    13    14 1   
    28    13    34 1   
    29    15    35 1   
    30    15    36 1   
    31    16    37 1   
    32    18    19 1   
    33    18    38 1   
    34    19    20 ar  
    35    19    24 ar  
    36    20    21 ar  
    37    20    39 1   
    38    21    22 ar  
    39    21    40 1   
    40    23    22 ar  
    41    24    23 ar  
    42    23    41 1   
    43    24    42 1   
@<TRIPOS>SUBSTRUCTURE
     1 20X         1 TEMP              0 ****  ****    0 ROOT
