@<TRIPOS>MOLECULE
20X
   42    44     1     0     0
SMALL
bcc


@<TRIPOS>ATOM
      1 C1           0.0000     0.0000     0.0000 c3         1 20X       0.026000
      2 F1           1.0180     3.1870    -9.0180 f          1 20X      -0.085000
      3 N1          -0.4890     0.0580    -1.3790 ns         1 20X       0.177000
      4 S1          -2.4760    -1.4960    -0.5490 s          1 20X      -0.384000
      5 C2           1.5310     0.0000     0.0000 c3         1 20X       0.020000
      6 N2          -2.0650    -0.5430    -2.9930 ns         1 20X       0.209000
      7 O2           2.0090    -1.1670    -0.6730 oh         1 20X      -0.301000
      8 C3           2.0330     0.0000     1.4470 c3         1 20X       0.040000
      9 N3          -1.3600     0.1930    -3.9550 n2         1 20X      -0.091000
     10 O3          -2.0880     2.3070     2.7950 oh         1 20X      -0.300000
     11 C4           1.4520     1.2140     2.1780 c3         1 20X       0.025000
     12 O4           1.8560     1.1840     3.5490 oh         1 20X      -0.305000
     13 C5          -0.0770     1.1660     2.0950 c3         1 20X       0.062000
     14 O5          -0.4760     1.1370     0.7230 os         1 20X      -0.242000
     15 C6          -0.6630     2.4070     2.7700 c3         1 20X       0.075000
     16 O6           3.4600     0.0740     1.4580 oh         1 20X      -0.318000
     17 C7          -1.6150    -0.5970    -1.7240 c2         1 20X      -0.128000
     18 C8          -1.7930     0.2450    -5.1780 c2         1 20X      -0.399000
     19 C9          -1.0520     1.0200    -6.1900 c3         1 20X      -0.159000
     20 C10         -1.5150     1.0780    -7.5070 c2         1 20X      -0.021500
     21 C11         -0.8190     1.8050    -8.4490 c2         1 20X      -0.151500
     22 C12          0.3390     2.4770    -8.0920 c2         1 20X       0.117000
     23 C13          0.8040     2.4230    -6.7870 c2         1 20X      -0.151500
     24 C14          0.1120     1.7050    -5.8350 c2         1 20X      -0.021500
     25 H1          -0.3590    -0.9040     0.4770 h2         1 20X       0.141000
     26 HN1          0.0250     0.5680    -2.0710 hn         1 20X       0.085000
     27 H2           1.8910     0.8880    -0.5060 h1         1 20X       0.056000
     28 HN2         -2.9160    -1.0070    -3.2430 hn         1 20X       0.126000
     29 HO2          2.7150    -0.9290    -1.2500 ho         1 20X       0.196000
     30 H3           1.7080    -0.9080     1.9420 h1         1 20X       0.074000
     31 HO3         -2.4430     2.9990     3.3280 ho         1 20X       0.186000
     32 H4           1.8100     2.1230     1.7090 h1         1 20X       0.059000
     33 HO4          2.5470     1.8110     3.6870 ho         1 20X       0.198000
     34 H5          -0.4360     0.2740     2.5930 h1         1 20X       0.083000
     35 H6          -0.2890     2.4780     3.7840 h1         1 20X       0.035000
     36 H6A         -0.3730     3.2920     2.2160 h1         1 20X       0.035000
     37 HO6          3.8100    -0.6630     1.9300 ho         1 20X       0.204000
     38 H8          -0.8890    -0.0960    -5.6680 DU         1 20X       0.324000
     39 H10         -2.4200     0.5520    -7.7870 ha         1 20X       0.125000
     40 H11         -1.1770     1.8500    -9.4700 ha         1 20X       0.127500
     41 H13          1.7070     2.9550    -6.5120 ha         1 20X       0.127500
     42 H14          0.4760     1.6630    -4.8150 ha         1 20X       0.125000
@<TRIPOS>BOND
     1     1     3 1   
     2     1     5 1   
     3     1    14 1   
     4     1    25 1   
     5     2    22 1   
     6     3    17 1   
     7     3    26 1   
     8     4    17 1   
     9     5     7 1   
    10     5     8 1   
    11     5    27 1   
    12     6     9 1   
    13     6    17 1   
    14     6    28 1   
    15     7    29 1   
    16     8    11 1   
    17     8    16 1   
    18     8    30 1   
    19     9    18 1   
    20    10    15 1   
    21    10    31 1   
    22    11    12 1   
    23    11    13 1   
    24    11    32 1   
    25    12    33 1   
    26    13    14 1   
    27    13    15 1   
    28    13    34 1   
    29    15    35 1   
    30    15    36 1   
    31    16    37 1   
    32    18    19 1   
    33    18    38 1   
    34    19    20 1   
    35    19    24 1   
    36    19    38 1   
    37    20    21 1   
    38    20    39 1   
    39    21    22 1   
    40    21    40 1   
    41    22    23 1   
    42    23    24 1   
    43    23    41 1   
    44    24    42 1   
@<TRIPOS>SUBSTRUCTURE
     1 20X         1 TEMP              0 ****  ****    0 ROOT
