@<TRIPOS>MOLECULE
20Y
   42    44     1     0     0
SMALL
bcc


@<TRIPOS>ATOM
      1 C14          0.0000     0.0000     0.0000 ca         1 20Y      -0.089400
      2 C5          -2.1020    -0.1310    -6.0710 ca         1 20Y      -0.060400
      3 C6          -0.8290    -0.6910    -6.0090 ca         1 20Y      -0.134500
      4 C11         -0.1020    -0.4440    -2.3360 c          1 20Y       0.586700
      5 C7          -0.1780    -0.7930    -4.8000 ca         1 20Y      -0.034500
      6 C8          -0.7970    -0.3350    -3.6340 ca         1 20Y      -0.183600
      7 C9          -2.0760     0.2270    -3.7000 ca         1 20Y      -0.034500
      8 C10         -2.7200     0.3270    -4.9110 ca         1 20Y      -0.134500
      9 C1          -4.8160     0.0870    -8.6630 c3         1 20Y      -0.068100
     10 C2          -4.0960    -0.1460    -7.3590 c          1 20Y       0.559100
     11 O3          -4.7250    -0.4450    -6.3660 o          1 20Y      -0.627100
     12 O12          1.0100    -0.9330    -2.2810 o          1 20Y      -0.638100
     13 N13         -0.7000    -0.0010    -1.2130 ns         1 20Y      -0.019100
     14 C15          1.3840     0.0000     0.0000 ca         1 20Y      -0.118000
     15 C16          2.0780     0.0000     1.2110 ca         1 20Y       0.017000
     16 C17          1.3760     0.0010     2.4170 ca         1 20Y      -0.110000
     17 C18         -0.0040     0.0010     2.4120 ca         1 20Y      -0.092000
     18 C19         -0.6970     0.0060     1.2100 ca         1 20Y      -0.010400
     19 N20         -2.0960     0.0060     1.2100 nv         1 20Y      -0.559200
     20 C21          3.5570    -0.0010     1.2170 cc         1 20Y       0.081900
     21 C22          4.3320     0.0000     2.3190 cd         1 20Y      -0.137000
     22 C23          5.6890    -0.0010     2.0710 cd         1 20Y      -0.124000
     23 C24          6.0280    -0.0020     0.7790 cc         1 20Y      -0.003100
     24 S25          4.5780    -0.0090    -0.2160 ss         1 20Y      -0.254800
     25 H1          -0.3500    -1.0470    -6.9130 ha         1 20Y       0.125500
     26 H2           0.8130    -1.2290    -4.7530 ha         1 20Y       0.115000
     27 H3          -2.5580     0.5840    -2.7980 ha         1 20Y       0.115000
     28 H4          -3.7110     0.7620    -4.9630 ha         1 20Y       0.125500
     29 H5          -4.5260    -0.6750    -9.3770 hc         1 20Y       0.025367
     30 H6          -4.5530     1.0630    -9.0510 hc         1 20Y       0.025367
     31 H7          -5.8850     0.0390    -8.4990 hc         1 20Y       0.025367
     32 H8          -2.2230     0.0500    -8.1410 hn         1 20Y       0.170500
     33 H9          -1.6360     0.3510    -1.2510 hn         1 20Y       0.177500
     34 H10          1.9270    -0.0010    -0.9370 ha         1 20Y       0.173000
     35 H11          1.9140    -0.0010     3.3570 ha         1 20Y       0.110000
     36 H12         -0.5480     0.0040     3.3490 ha         1 20Y       0.108000
     37 H13         -2.5970     0.8710     1.2580 hn         1 20Y       0.272300
     38 H14         -2.5960    -0.8610     1.2010 hn         1 20Y       0.272300
     39 H15          3.9210     0.0010     3.3220 ha         1 20Y       0.124000
     40 H16          6.4250     0.0020     2.8660 ha         1 20Y       0.117000
     41 H17          7.0440    -0.0030     0.4010 h4         1 20Y       0.147000
     42 N4          -2.7560    -0.0240    -7.2970 ns         1 20Y      -0.037100
@<TRIPOS>BOND
     1     1    13 1   
     2     1    14 ar  
     3     1    18 ar  
     4     2     3 ar  
     5     2     8 ar  
     6     2    42 1   
     7     3     5 ar  
     8     3    25 1   
     9     4     6 1   
    10     4    12 2   
    11     4    13 1   
    12     5     6 ar  
    13     5    26 1   
    14     6     7 ar  
    15     7     8 ar  
    16     7    27 1   
    17     8    28 1   
    18     9    10 1   
    19     9    29 1   
    20     9    30 1   
    21     9    31 1   
    22    10    11 2   
    23    10    42 1   
    24    13    33 1   
    25    14    15 ar  
    26    14    34 1   
    27    15    16 ar  
    28    15    20 1   
    29    16    17 ar  
    30    16    35 1   
    31    17    18 ar  
    32    17    36 1   
    33    18    19 1   
    34    19    37 1   
    35    19    38 1   
    36    20    21 2   
    37    20    24 1   
    38    21    22 1   
    39    21    39 1   
    40    22    23 2   
    41    22    40 1   
    42    23    24 1   
    43    23    41 1   
    44    32    42 1   
@<TRIPOS>SUBSTRUCTURE
     1 20Y         1 TEMP              0 ****  ****    0 ROOT
