@<TRIPOS>MOLECULE
molecule
   46    49     1     0     0
SMALL
bcc


@<TRIPOS>ATOM
      1 N01          0.0000     0.0000     0.0000 nc         1 20Z      -0.786000
      2 N02         -1.9640    -0.0010     1.3290 nu         1 20Z      -0.735300
      3 N03          2.0720     0.0000    -1.1590 nv         1 20Z      -1.045500
      4 N04         -6.4850     1.6040    -3.2180 nz         1 20Z      -0.805500
      5 C05          1.8650     0.0000     1.2690 cd         1 20Z      -0.267000
      6 C06          1.3130     0.0000     0.0000 cc         1 20Z       0.737200
      7 C07         -0.5980    -0.0000     1.1560 cd         1 20Z       0.664300
      8 C08         -2.8100     0.0580     0.2170 ca         1 20Z       0.265600
      9 C09          3.2390     0.0010     1.5750 c          1 20Z       0.620300
     10 C10          3.6840     0.1720     2.9760 ca         1 20Z      -0.161600
     11 C11          4.9140    -0.3670     3.3880 ca         1 20Z      -0.085000
     12 C12          5.3450    -0.2240     4.6680 ca         1 20Z      -0.111000
     13 C13          4.5560     0.4720     5.6010 ca         1 20Z      -0.018000
     14 C14          3.3120     1.0210     5.1980 ca         1 20Z      -0.043000
     15 C15          2.8870     0.8680     3.8700 ca         1 20Z      -0.094000
     16 C16         -4.0560    -0.5560     0.2570 ca         1 20Z      -0.163500
     17 C17         -4.8890    -0.4950    -0.8420 ca         1 20Z      -0.006500
     18 C18         -4.4830     0.1740    -1.9830 ca         1 20Z      -0.375500
     19 C19         -3.2430     0.7850    -2.0270 ca         1 20Z      -0.006500
     20 C20         -2.4080     0.7340    -0.9280 ca         1 20Z      -0.163500
     21 C21          4.9780     0.6320     6.9310 ca         1 20Z      -0.115000
     22 C22          4.1930     1.3110     7.8120 ca         1 20Z      -0.112000
     23 C23          2.9710     1.8510     7.4160 ca         1 20Z      -0.118000
     24 C24          2.5270     1.7150     6.1360 ca         1 20Z      -0.120000
     25 O25          4.0620    -0.1410     0.6870 o          1 20Z      -0.503100
     26 O26         -6.4290    -0.8620    -3.2780 o          1 20Z      -0.523300
     27 O27         -4.7130     0.4730    -4.5120 o          1 20Z      -0.523300
     28 S28          0.5410    -0.0000     2.4300 ss         1 20Z      -0.114300
     29 S29         -5.5490     0.2480    -3.3840 sy         1 20Z       1.222200
     30 HN02        -2.3510    -0.0180     2.2520 hn         1 20Z       0.476800
     31 HN03         2.2820    -0.8630    -1.6200 hn         1 20Z       0.452300
     32 HN0A         2.3770     0.8660    -1.5570 hn         1 20Z       0.452300
     33 HN04        -7.0170     1.5410    -2.3730 hn         1 20Z       0.489800
     34 HN0B        -5.8970     2.4130    -3.1820 hn         1 20Z       0.489800
     35 H11          5.5280    -0.9050     2.6740 ha         1 20Z       0.153000
     36 H12          6.2960    -0.6460     4.9700 ha         1 20Z       0.145000
     37 H15          1.8870     1.1710     3.5820 ha         1 20Z       0.128000
     38 H16         -4.3740    -1.0790     1.1500 ha         1 20Z       0.180000
     39 H17         -5.8600    -0.9730    -0.8120 ha         1 20Z       0.155500
     40 H19         -2.9290     1.3100    -2.9210 ha         1 20Z       0.155500
     41 H20         -1.4370     1.2130    -0.9630 ha         1 20Z       0.180000
     42 H21          5.9260     0.2180     7.2540 ha         1 20Z       0.142000
     43 H22          4.5220     1.4330     8.8360 ha         1 20Z       0.138000
     44 H23          2.3650     2.3860     8.1370 ha         1 20Z       0.134000
     45 H24          1.5750     2.1400     5.8420 ha         1 20Z       0.128000
     46 H043        -7.1040     1.6800    -4.0000 hn         1 20Z       0.489800
@<TRIPOS>BOND
     1     6     1 1   
     2     1     7 2   
     3     7     2 1   
     4     2     8 1   
     5     2    30 1   
     6     3     6 1   
     7     3    31 1   
     8     3    32 1   
     9    29     4 1   
    10     4    33 1   
    11     4    34 1   
    12     6     5 2   
    13     9     5 1   
    14     5    28 1   
    15     7    28 1   
    16     8    16 ar  
    17     8    20 ar  
    18    25     9 2   
    19     9    10 1   
    20    10    11 ar  
    21    10    15 ar  
    22    11    12 ar  
    23    11    35 1   
    24    12    13 ar  
    25    12    36 1   
    26    14    13 ar  
    27    13    21 ar  
    28    15    14 ar  
    29    14    24 ar  
    30    15    37 1   
    31    16    17 ar  
    32    16    38 1   
    33    17    18 ar  
    34    17    39 1   
    35    19    18 ar  
    36    18    29 1   
    37    20    19 ar  
    38    19    40 1   
    39    20    41 1   
    40    21    22 ar  
    41    21    42 1   
    42    23    22 ar  
    43    22    43 1   
    44    24    23 ar  
    45    23    44 1   
    46    24    45 1   
    47    26    29 2   
    48    29    27 2   
    49    46     4 1   
@<TRIPOS>SUBSTRUCTURE
     1 20Z         1 TEMP              0 ****  ****    0 ROOT
