@<TRIPOS>MOLECULE
20Z
   46    49     1     0     0
SMALL
bcc


@<TRIPOS>ATOM
      1 N01          0.0000     0.0000     0.0000 nc         1 20Z      -0.660000
      2 N02         -1.9640    -0.0010     1.3290 nu         1 20Z      -0.239300
      3 N03          2.0720     0.0000    -1.1590 nv         1 20Z      -0.607500
      4 N04         -6.4850     1.6040    -3.2180 nz         1 20Z      -0.133500
      5 C05          1.8650     0.0000     1.2690 cd         1 20Z      -0.219000
      6 C06          1.3130     0.0000     0.0000 cc         1 20Z       0.563200
      7 C07         -0.5980    -0.0000     1.1560 cd         1 20Z       0.499300
      8 C08         -2.8100     0.0580     0.2170 ca         1 20Z       0.098600
      9 C09          3.2390     0.0010     1.5750 c          1 20Z       0.679300
     10 C10          3.6840     0.1720     2.9760 ca         1 20Z      -0.172600
     11 C11          4.9140    -0.3670     3.3880 ca         1 20Z      -0.055000
     12 C12          5.3450    -0.2240     4.6680 ca         1 20Z      -0.084000
     13 C13          4.5560     0.4720     5.6010 ca         1 20Z      -0.016000
     14 C14          3.3120     1.0210     5.1980 ca         1 20Z      -0.044000
     15 C15          2.8870     0.8680     3.8700 ca         1 20Z      -0.079000
     16 C16         -4.0560    -0.5560     0.2570 ca         1 20Z      -0.151000
     17 C17         -4.8890    -0.4950    -0.8420 ca         1 20Z       0.040000
     18 C18         -4.4830     0.1740    -1.9830 ca         1 20Z      -0.264500
     19 C19         -3.2430     0.7850    -2.0270 ca         1 20Z       0.040000
     20 C20         -2.4080     0.7340    -0.9280 ca         1 20Z      -0.151000
     21 C21          4.9780     0.6320     6.9310 ca         1 20Z      -0.087000
     22 C22          4.1930     1.3110     7.8120 ca         1 20Z      -0.085000
     23 C23          2.9710     1.8510     7.4160 ca         1 20Z      -0.092000
     24 C24          2.5270     1.7150     6.1360 ca         1 20Z      -0.091000
     25 O25          4.0620    -0.1410     0.6870 o          1 20Z      -0.541100
     26 O26         -6.4290    -0.8620    -3.2780 o          1 20Z      -0.498800
     27 O27         -4.7130     0.4730    -4.5120 o          1 20Z      -0.498800
     28 S28          0.5410    -0.0000     2.4300 ss         1 20Z      -0.228300
     29 S29         -5.5490     0.2480    -3.3840 sy         1 20Z       0.931200
     30 HN02        -2.3510    -0.0180     2.2520 hn         1 20Z       0.301800
     31 HN03         2.2820    -0.8630    -1.6200 hn         1 20Z       0.288800
     32 HN0A         2.3770     0.8660    -1.5570 hn         1 20Z       0.288800
     33 HN04        -7.0170     1.5410    -2.3730 hn         1 20Z       0.311800
     34 HN0B        -5.8970     2.4130    -3.1820 hn         1 20Z       0.311800
     35 H11          5.5280    -0.9050     2.6740 ha         1 20Z       0.122000
     36 H12          6.2960    -0.6460     4.9700 ha         1 20Z       0.115000
     37 H15          1.8870     1.1710     3.5820 ha         1 20Z       0.124000
     38 H16         -4.3740    -1.0790     1.1500 ha         1 20Z       0.149500
     39 H17         -5.8600    -0.9730    -0.8120 ha         1 20Z       0.123000
     40 H19         -2.9290     1.3100    -2.9210 ha         1 20Z       0.123000
     41 H20         -1.4370     1.2130    -0.9630 ha         1 20Z       0.149500
     42 H21          5.9260     0.2180     7.2540 ha         1 20Z       0.113000
     43 H22          4.5220     1.4330     8.8360 ha         1 20Z       0.107000
     44 H23          2.3650     2.3860     8.1370 ha         1 20Z       0.104000
     45 H24          1.5750     2.1400     5.8420 ha         1 20Z       0.102000
     46 H043        -7.1040     1.6800    -4.0000 hn         1 20Z       0.311800
@<TRIPOS>BOND
     1     1     6 1   
     2     1     7 2   
     3     2     7 1   
     4     2     8 1   
     5     2    30 1   
     6     3     6 1   
     7     3    31 1   
     8     3    32 1   
     9     4    29 1   
    10     4    33 1   
    11     4    34 1   
    12     4    46 1   
    13     5     6 2   
    14     5     9 1   
    15     5    28 1   
    16     7    28 1   
    17     8    16 ar  
    18     8    20 ar  
    19     9    10 1   
    20     9    25 2   
    21    10    11 ar  
    22    10    15 ar  
    23    11    12 ar  
    24    11    35 1   
    25    12    13 ar  
    26    12    36 1   
    27    13    14 ar  
    28    13    21 ar  
    29    14    15 ar  
    30    14    24 ar  
    31    15    37 1   
    32    16    17 ar  
    33    16    38 1   
    34    17    18 ar  
    35    17    39 1   
    36    18    19 ar  
    37    18    29 1   
    38    19    20 ar  
    39    19    40 1   
    40    20    41 1   
    41    21    22 ar  
    42    21    42 1   
    43    22    23 ar  
    44    22    43 1   
    45    23    24 ar  
    46    23    44 1   
    47    24    45 1   
    48    26    29 2   
    49    27    29 2   
@<TRIPOS>SUBSTRUCTURE
     1 20Z         1 TEMP              0 ****  ****    0 ROOT
