@<TRIPOS>MOLECULE
210
   20    19     1     0     0
SMALL
bcc


@<TRIPOS>ATOM
      1 P1          0.0010   -0.3400    0.6370 p5        1 210      1.254700
      2 O2          1.4980   -0.0890    0.8170 o         1 210     -0.985500
      3 O3         -0.4800   -1.1400    1.8500 o         1 210     -0.985500
      4 O5         -0.7980    0.9470    0.4940 o         1 210     -0.985500
      5 C7         -0.2890   -1.3840   -0.8590 c3        1 210     -0.205600
      6 P8         -0.1040   -1.4030   -2.7300 p5        1 210      1.254700
      7 O9         -0.9030   -0.2330   -3.2810 o         1 210     -0.985500
      8 O10         1.3700   -1.3490   -3.1130 o         1 210     -0.985500
      9 O12        -0.6890   -2.7260   -3.2250 o         1 210     -0.985500
     10 O14        -1.7400   -1.2890   -0.8550 oh        1 210     -0.676800
     11 C16         0.0520   -2.7910   -0.4440 c3        1 210     -0.073400
     12 C19         1.5360   -3.2080   -0.5260 c3        1 210      0.132800
     13 N22         2.3950   -2.8640    0.5910 n3        1 210     -0.972800
     14 HO14       -1.8710   -0.3800   -1.1630 ho        1 210      0.407000
     15 H161       -0.5100   -3.4910   -1.1270 hc        1 210      0.017700
     16 H162       -0.3210   -2.9620    0.6060 hc        1 210      0.017700
     17 H191        1.5790   -4.3330   -0.6470 h1        1 210      0.022200
     18 H192        1.9320   -2.7170   -1.4720 h1        1 210      0.022200
     19 H221        1.9280   -3.1400    1.4400 hn        1 210      0.355300
     20 H222        2.4220   -1.8370    0.6250 hn        1 210      0.355300
@<TRIPOS>BOND
     1    1    2 1
     2    1    3 1
     3    1    4 1
     4    1    5 1
     5    5    6 1
     6    5   10 1
     7    5   11 1
     8    6    7 1
     9    6    8 1
    10    6    9 1
    11   10   14 1
    12   11   12 1
    13   11   15 1
    14   11   16 1
    15   12   13 1
    16   12   17 1
    17   12   18 1
    18   13   19 1
    19   13   20 1
@<TRIPOS>SUBSTRUCTURE
     1 210         1 TEMP              0 ****  ****    0 ROOT
