@<TRIPOS>MOLECULE
211
   25    24     1     0     0
SMALL
bcc


@<TRIPOS>ATOM
      1 O1           0.0000     0.0000     0.0000 oh         1 211      -0.572133
      2 O2          -0.5410     0.0350     2.4940 oh         1 211      -0.572133
      3 C1           1.9380     0.0000     1.4430 c3         1 211       0.095133
      4 C2           1.4290     0.0000     0.0000 c3         1 211       0.208733
      5 O3           4.6000    -2.1930     2.8190 oh         1 211      -0.572133
      6 C3           0.6190    -1.9360     1.7100 c3         1 211       0.095133
      7 C4          -0.3670    -1.3640     2.7300 c3         1 211       0.208733
      8 C5           2.8910    -2.1300     1.1100 c3         1 211       0.095133
      9 C6           4.3280    -1.7600     1.4840 c3         1 211       0.208733
     10 N1           1.9560    -1.3770     1.9560 n3         1 211      -0.491600
     11 HO1         -0.3140     0.3590    -0.8130 ho         1 211       0.377333
     12 HO2         -1.2020     0.3720     3.0750 ho         1 211       0.377333
     13 H11          2.9410     0.4090     1.4720 h1         1 211       0.038533
     14 H12          1.2830     0.6060     2.0570 h1         1 211       0.038533
     15 H21          1.7900     0.8850    -0.5110 h1         1 211      -0.010967
     16 H22          1.7900    -0.8840    -0.5110 h1         1 211      -0.010967
     17 HO3          5.5280    -2.1550     2.9790 ho         1 211       0.377333
     18 H31          0.2970    -1.6740     0.7090 h1         1 211       0.038533
     19 H32          0.6550    -3.0140     1.8070 h1         1 211       0.038533
     20 H41          0.0190    -1.5170     3.7300 h1         1 211      -0.010967
     21 H42         -1.3210    -1.8680     2.6310 h1         1 211      -0.010967
     22 H51          2.7140    -1.8850     0.0700 h1         1 211       0.038533
     23 H52          2.7400    -3.1920     1.2620 h1         1 211       0.038533
     24 H61          4.4520    -0.6860     1.4210 h1         1 211      -0.010967
     25 H62          5.0150    -2.2440     0.8010 h1         1 211      -0.010967
@<TRIPOS>BOND
     1     1     4 1   
     2     1    11 1   
     3     2     7 1   
     4     2    12 1   
     5     3     4 1   
     6     3    10 1   
     7     3    13 1   
     8     3    14 1   
     9     4    15 1   
    10     4    16 1   
    11     5     9 1   
    12     5    17 1   
    13     6     7 1   
    14     6    10 1   
    15     6    18 1   
    16     6    19 1   
    17     7    20 1   
    18     7    21 1   
    19     8     9 1   
    20     8    10 1   
    21     8    22 1   
    22     8    23 1   
    23     9    24 1   
    24     9    25 1   
@<TRIPOS>SUBSTRUCTURE
     1 211         1 TEMP              0 ****  ****    0 ROOT
