@<TRIPOS>MOLECULE
213
   72    76     1     0     0
SMALL
bcc


@<TRIPOS>ATOM
      1 C1          0.4850   -0.0310    0.3310 ca        1 213     -0.138000
      2 C2          1.6980   -0.6040    0.7070 ca        1 213     -0.146500
      3 C3          2.1940   -0.4250    1.9990 ca        1 213     -0.098000
      4 C4          1.4800    0.3250    2.9420 ca        1 213     -0.080000
      5 C5          0.2630    0.9070    2.5490 ca        1 213     -0.098000
      6 C6         -0.2280    0.7300    1.2560 ca        1 213     -0.146500
      7 C10         0.4470    3.6550    4.4710 ca        1 213     -0.045000
      8 C11         1.5600    3.0620    3.8400 ca        1 213     -0.338000
      9 C12         1.8820    3.5190    2.5430 ca        1 213     -0.045000
     10 C13         1.1160    4.4450    1.8820 ca        1 213     -0.275000
     11 C14        -0.0690    4.9930    2.4850 ca        1 213      0.067000
     12 C15        -0.3470    4.5760    3.8320 ca        1 213     -0.275000
     13 C20         3.2620   -1.2960    6.9300 ca        1 213     -0.126500
     14 C21         3.8470   -0.4850    5.9510 ca        1 213     -0.110000
     15 C22         5.1400    0.0040    6.1940 ca        1 213     -0.126500
     16 C23         5.8630   -0.3970    7.3140 ca        1 213     -0.146000
     17 C24         5.3140   -1.2920    8.2510 cp        1 213      0.037000
     18 C25         3.9720   -1.6710    8.0660 ca        1 213     -0.146000
     19 C30         1.9880    0.5610    4.3650 c3        1 213      0.149000
     20 N31         0.9120    0.1620    5.3080 na        1 213     -0.145000
     21 C32         3.2390   -0.3360    4.6020 c3        1 213     -0.122000
     22 C35         2.4110    2.0620    4.5130 c3        1 213     -0.046000
     23 C40        -1.5000   -3.1710    5.8360 ca        1 213     -0.176000
     24 C41        -1.5130   -2.0860    6.6990 ca        1 213     -0.062000
     25 C42        -0.6520   -1.0200    6.4200 ca        1 213     -0.131000
     26 C43         0.2190   -1.0650    5.2580 ca        1 213     -0.025000
     27 C44         0.2100   -2.1740    4.4010 ca        1 213     -0.105000
     28 C45        -0.6540   -3.2120    4.7100 ca        1 213     -0.129000
     29 N46        -0.3880    0.2230    7.0570 n2        1 213     -0.116000
     30 N47         0.5000    0.8440    6.4010 n2        1 213      0.092000
     31 C52        -0.8850    5.8600    1.8050 c2        1 213     -0.111000
     32 F53        -0.7630    6.3390    0.5390 f         1 213     -0.150000
     33 F54        -2.0340    6.4630    2.2080 f         1 213     -0.150000
     34 P55        -2.8770    7.8750    0.1300 p3        1 213      2.416000
     35 O56        -3.4880    8.5870    1.2720 o         1 213     -1.142333
     36 O57        -3.5950    6.7360   -0.4790 o         1 213     -1.142333
     37 O58        -1.8330    8.5750   -0.6490 o         1 213     -1.142333
     38 C61         6.1190   -1.8680    9.3240 cq        1 213     -0.123000
     39 C62         7.2920   -1.2540    9.8100 ca        1 213     -0.039000
     40 C63         8.0650   -1.8750   10.7770 ca        1 213     -0.552000
     41 C64         7.6780   -3.0940   11.3130 ca        1 213     -0.069000
     42 C65         6.5150   -3.7200   10.8570 ca        1 213     -0.201000
     43 C66         5.7500   -3.1150    9.8630 ca        1 213     -0.153000
     44 P71         9.6140   -1.2330   11.3700 p5        1 213      1.622500
     45 O72        10.6180   -1.8350   10.4120 o         1 213     -0.950833
     46 O73         9.6970   -1.7960   12.7750 o         1 213     -0.950833
     47 O74         9.4600    0.2660   11.2780 o         1 213     -0.950833
     48 H1          0.1030   -0.1610   -0.6900 ha        1 213      0.109000
     49 H2          2.2770   -1.1910   -0.0190 ha        1 213      0.123000
     50 H3          3.1670   -0.8780    2.2380 ha        1 213      0.151500
     51 H5         -0.2920    1.5540    3.2530 ha        1 213      0.151500
     52 H6         -1.1670    1.2240    0.9630 ha        1 213      0.123000
     53 H12         2.7790    3.1110    2.0500 ha        1 213      0.086000
     54 H13         1.3830    4.7890    0.8750 ha        1 213      0.106500
     55 H15        -1.2120    5.0240    4.3360 ha        1 213      0.106500
     56 H22         5.6020    0.6930    5.4720 ha        1 213      0.114000
     57 H23         6.8910   -0.0290    7.4620 ha        1 213      0.137500
     58 H25         3.4720   -2.2910    8.8240 ha        1 213      0.137500
     59 H321        4.0280    0.0560    3.9020 hc        1 213      0.082000
     60 H322        2.9700   -1.3800    4.2670 hc        1 213      0.082000
     61 H351        2.5100    2.3000    5.6050 hc        1 213      0.083500
     62 H352        3.4460    2.1130    4.0730 hc        1 213      0.083500
     63 H40        -2.1630   -4.0260    6.0310 ha        1 213      0.108000
     64 H41        -2.1720   -2.0550    7.5760 ha        1 213      0.131000
     65 H44         0.8630   -2.2020    3.5160 ha        1 213      0.151000
     66 H45        -0.6840   -4.0970    4.0590 ha        1 213      0.113000
     67 H62         7.6170   -0.2630    9.4520 ha        1 213      0.149000
     68 H64         8.3190   -3.5150   12.1070 ha        1 213      0.164000
     69 H65         6.2010   -4.6880   11.2690 ha        1 213      0.073000
     70 H66         4.8590   -3.6360    9.4870 ha        1 213      0.079000
     71 H10         0.2120    3.3710    5.5090 ha        1 213      0.086000
     72 H20         2.2360   -1.6700    6.7950 ha        1 213      0.114000
@<TRIPOS>BOND
     1    1    2 1   
     2    1    6 1   
     3    1   48 1   
     4    2    3 1   
     5    2   49 1   
     6    3    4 1   
     7    3   50 1   
     8    4    5 1   
     9    4   19 1   
    10    5    6 1   
    11    5   51 1   
    12    6   52 1   
    13    7    8 1   
    14    7   12 1   
    15    7   71 1   
    16    8    9 1   
    17    8   22 1   
    18    9   10 1   
    19    9   53 1   
    20   10   11 1   
    21   10   54 1   
    22   11   12 1   
    23   11   31 1   
    24   12   55 1   
    25   13   14 1   
    26   13   18 1   
    27   13   72 1   
    28   14   15 1   
    29   14   21 1   
    30   15   16 1   
    31   15   56 1   
    32   16   17 1   
    33   16   57 1   
    34   17   18 1   
    35   17   38 1   
    36   18   58 1   
    37   19   20 1   
    38   19   21 1   
    39   19   22 1   
    40   20   26 1   
    41   20   30 1   
    42   21   59 1   
    43   21   60 1   
    44   22   61 1   
    45   22   62 1   
    46   23   24 1   
    47   23   28 1   
    48   23   63 1   
    49   24   25 1   
    50   24   64 1   
    51   25   26 1   
    52   25   29 1   
    53   26   27 1   
    54   27   28 1   
    55   27   65 1   
    56   28   66 1   
    57   29   30 1   
    58   31   32 1   
    59   31   33 1   
    60   34   35 1   
    61   34   36 1   
    62   34   37 1   
    63   38   39 1   
    64   38   43 1   
    65   39   40 1   
    66   39   67 1   
    67   40   41 1   
    68   40   44 1   
    69   41   42 1   
    70   41   68 1   
    71   42   43 1   
    72   42   69 1   
    73   43   70 1   
    74   44   45 1   
    75   44   46 1   
    76   44   47 1   
@<TRIPOS>SUBSTRUCTURE
     1 213         1 TEMP              0 ****  ****    0 ROOT
