@<TRIPOS>MOLECULE
molecule
   72    77     1     0     0
SMALL
bcc


@<TRIPOS>ATOM
      1 C1           0.0000     0.0000     0.0000 ca         1 213      -0.140000
      2 C2           1.3830     0.0000     0.0000 ca         1 213      -0.129500
      3 C3           2.0730     0.0000     1.1970 ca         1 213      -0.106500
      4 C4           1.3830     0.0000     2.3940 ca         1 213      -0.069300
      5 C5           0.0000    -0.0050     2.3940 ca         1 213      -0.106500
      6 C6          -0.6910    -0.0000     1.1980 ca         1 213      -0.129500
      7 C10          1.3880     3.0830     4.8210 ca         1 213      -0.131500
      8 C11          1.9200     2.4700     3.7010 ca         1 213      -0.145300
      9 C12          1.5680     2.9140     2.4390 ca         1 213      -0.131500
     10 C13          0.6790     3.9610     2.2980 ca         1 213      -0.090000
     11 C14          0.1460     4.5730     3.4170 ca         1 213      -0.062300
     12 C15          0.5020     4.1330     4.6790 ca         1 213      -0.090000
     13 C20          3.3170    -2.0760     6.0310 ca         1 213      -0.132500
     14 C21          3.8110    -1.2260     5.0560 ca         1 213      -0.133300
     15 C22          4.9200    -0.4400     5.3140 ca         1 213      -0.132500
     16 C23          5.5360    -0.4950     6.5470 ca         1 213      -0.122500
     17 C24          5.0470    -1.3530     7.5300 cp         1 213       0.034000
     18 C25          3.9290    -2.1430     7.2660 ca         1 213      -0.122500
     19 C30          2.1370     0.0000     3.6990 c3         1 213       0.140000
     20 N31          1.1930    -0.1610     4.8080 na         1 213       0.088900
     21 C32          3.1370    -1.1570     3.7100 c3         1 213      -0.036100
     22 C35          2.8870     1.3250     3.8550 c3         1 213      -0.017100
     23 C40         -1.4280    -3.0680     6.0810 ca         1 213      -0.183000
     24 C41         -1.2490    -1.8770     6.7220 ca         1 213      -0.048000
     25 C42         -0.3360    -0.9420     6.2190 ca         1 213       0.026400
     26 C43          0.3860    -1.2460     5.0510 ca         1 213      -0.074200
     27 C44          0.1940    -2.4680     4.4160 ca         1 213      -0.129000
     28 C45         -0.7110    -3.3700     4.9310 ca         1 213      -0.126000
     29 N46          0.0430     0.2860     6.6260 nc         1 213      -0.227400
     30 N47          0.9300     0.7670     5.8270 nd         1 213      -0.054400
     31 C52         -0.8210     5.7180     3.2640 c3         1 213       0.325700
     32 F53         -1.6170     5.5060     2.1330 f          1 213      -0.274300
     33 F54         -1.6340     5.7970     4.3980 f          1 213      -0.274300
     34 P55          0.1070     7.2760     3.0700 p5         1 213       0.977700
     35 O56          1.1190     7.4540     4.3090 o          1 213      -0.874167
     36 O57         -0.8400     8.4120     3.0380 o          1 213      -0.874167
     37 O58          0.9430     7.2350     1.6950 o          1 213      -0.874167
     38 C61          5.7100    -1.4200     8.8560 cp         1 213      -0.115000
     39 C62          6.2550    -0.2710     9.4250 ca         1 213      -0.036000
     40 C63          6.8750    -0.3410    10.6560 ca         1 213      -0.142500
     41 C64          6.9460    -1.5470    11.3300 ca         1 213      -0.074000
     42 C65          6.4020    -2.6900    10.7730 ca         1 213      -0.195000
     43 C66          5.7840    -2.6320     9.5400 ca         1 213      -0.156000
     44 P71          7.5920     1.1530    11.3950 p5         1 213       1.053000
     45 O72          8.7210     1.6220    10.5610 o          1 213      -0.899833
     46 O73          8.1220     0.8160    12.8770 o          1 213      -0.899833
     47 O74          6.4690     2.3030    11.4740 o          1 213      -0.899833
     48 H1          -0.5420     0.0020    -0.9380 ha         1 213       0.109000
     49 H2           1.9240    -0.0000    -0.9380 ha         1 213       0.116500
     50 H3           3.1570     0.0020     1.1970 ha         1 213       0.139000
     51 H5          -0.5410    -0.0050     3.3320 ha         1 213       0.139000
     52 H6          -1.7740    -0.0030     1.1980 ha         1 213       0.116500
     53 H12          1.9850     2.4350     1.5610 ha         1 213       0.116500
     54 H13          0.4020     4.3070     1.3090 ha         1 213       0.149500
     55 H15          0.0850     4.6120     5.5570 ha         1 213       0.149500
     56 H22          5.3320     0.1860     4.5320 ha         1 213       0.115500
     57 H23          6.4420     0.0720     6.7250 ha         1 213       0.138500
     58 H25          3.4990    -2.9400     7.8590 ha         1 213       0.138500
     59 H321         3.8830    -0.9970     2.9410 hc         1 213       0.043200
     60 H322         2.6160    -2.0870     3.5190 hc         1 213       0.043200
     61 H351         3.6560     1.3970     3.0960 hc         1 213       0.067700
     62 H352         3.3430     1.3680     4.8370 hc         1 213       0.067700
     63 H40         -2.1360    -3.7870     6.4740 ha         1 213       0.109000
     64 H41         -1.8150    -1.6540     7.6180 ha         1 213       0.134000
     65 H44          0.7510    -2.7080     3.5190 ha         1 213       0.131000
     66 H45         -0.8650    -4.3200     4.4340 ha         1 213       0.109000
     67 H62          6.1990     0.6740     8.8990 ha         1 213       0.153000
     68 H64          7.4320    -1.5970    12.2970 ha         1 213       0.148000
     69 H65          6.4610    -3.6320    11.3050 ha         1 213       0.074000
     70 H66          5.3580    -3.5280     9.1040 ha         1 213       0.077000
     71 H10          1.6650     2.7370     5.8090 ha         1 213       0.116500
     72 H20          2.4780    -2.7230     5.8080 ha         1 213       0.115500
@<TRIPOS>BOND
     1     1     2 ar  
     2     1     6 ar  
     3     1    48 1   
     4     2     3 ar  
     5     2    49 1   
     6     3     4 ar  
     7     3    50 1   
     8     4     5 ar  
     9     4    19 1   
    10     5     6 ar  
    11     5    51 1   
    12     6    52 1   
    13     7     8 ar  
    14     7    12 ar  
    15     7    71 1   
    16     8     9 ar  
    17     8    22 1   
    18     9    10 ar  
    19     9    53 1   
    20    10    11 ar  
    21    10    54 1   
    22    11    12 ar  
    23    11    31 1   
    24    12    55 1   
    25    13    14 ar  
    26    13    18 ar  
    27    13    72 1   
    28    14    15 ar  
    29    14    21 1   
    30    15    16 ar  
    31    15    56 1   
    32    16    17 ar  
    33    16    57 1   
    34    17    18 ar  
    35    17    38 1   
    36    18    58 1   
    37    19    20 1   
    38    19    21 1   
    39    19    22 1   
    40    20    26 1   
    41    20    30 1   
    42    21    59 1   
    43    21    60 1   
    44    22    61 1   
    45    22    62 1   
    46    23    24 ar  
    47    23    28 ar  
    48    23    63 1   
    49    24    25 ar  
    50    24    64 1   
    51    25    26 ar  
    52    25    29 1   
    53    26    27 ar  
    54    27    28 ar  
    55    27    65 1   
    56    28    66 1   
    57    29    30 2   
    58    31    32 1   
    59    31    33 1   
    60    31    34 1   
    61    34    35 1   
    62    34    36 1   
    63    34    37 1   
    64    38    39 ar  
    65    38    43 ar  
    66    39    40 ar  
    67    39    67 1   
    68    40    41 ar  
    69    40    44 1   
    70    41    42 ar  
    71    41    68 1   
    72    42    43 ar  
    73    42    69 1   
    74    43    70 1   
    75    44    45 1   
    76    44    46 1   
    77    44    47 1   
@<TRIPOS>SUBSTRUCTURE
     1 213         1 TEMP              0 ****  ****    0 ROOT
