@<TRIPOS>MOLECULE
molecule
   80    86     1     0     0
SMALL
bcc


@<TRIPOS>ATOM
      1 C1           0.0000     0.0000     0.0000 ca         1 214      -0.139000
      2 C2           1.3820     0.0000     0.0000 ca         1 214      -0.129500
      3 C3           2.0730     0.0000     1.1980 ca         1 214      -0.106000
      4 C4           1.3810     0.0000     2.3950 ca         1 214      -0.070300
      5 C5          -0.0010    -0.0050     2.3940 ca         1 214      -0.106000
      6 C6          -0.6920    -0.0010     1.1960 ca         1 214      -0.129500
      7 C10          1.3860     3.0830     4.8210 ca         1 214      -0.132500
      8 C11          1.9170     2.4710     3.7020 ca         1 214      -0.144300
      9 C12          1.5680     2.9140     2.4400 ca         1 214      -0.132500
     10 C13          0.6770     3.9620     2.2980 ca         1 214      -0.089500
     11 C14          0.1440     4.5730     3.4180 ca         1 214      -0.062300
     12 C15          0.4990     4.1330     4.6790 ca         1 214      -0.089500
     13 C20          4.9160    -0.4400     5.3160 ca         1 214      -0.138500
     14 C21          3.8070    -1.2260     5.0580 ca         1 214      -0.125300
     15 C22          3.3130    -2.0750     6.0320 ca         1 214      -0.138500
     16 C23          3.9260    -2.1430     7.2670 ca         1 214      -0.106500
     17 C24          5.0430    -1.3520     7.5330 cp         1 214       0.016000
     18 C25          5.5330    -0.4950     6.5500 ca         1 214      -0.106500
     19 C30          2.1340     0.0010     3.7000 c3         1 214       0.141000
     20 N31          1.1900    -0.1600     4.8080 na         1 214       0.085900
     21 C32          3.1360    -1.1570     3.7120 c3         1 214      -0.038100
     22 C35          2.8840     1.3250     3.8570 c3         1 214      -0.018100
     23 C40         -1.4310    -3.0670     6.0790 ca         1 214      -0.181000
     24 C41         -1.2540    -1.8770     6.7210 ca         1 214      -0.046000
     25 C42         -0.3390    -0.9420     6.2190 ca         1 214       0.027400
     26 C43          0.3830    -1.2460     5.0510 ca         1 214      -0.074200
     27 C44          0.1910    -2.4680     4.4160 ca         1 214      -0.131000
     28 C45         -0.7140    -3.3690     4.9290 ca         1 214      -0.123000
     29 N46          0.0400     0.2860     6.6250 nc         1 214      -0.225400
     30 N47          0.9260     0.7680     5.8270 nd         1 214      -0.058400
     31 C52         -0.8230     5.7180     3.2630 c3         1 214       0.325700
     32 F53         -1.6190     5.5060     2.1320 f          1 214      -0.273800
     33 F54         -1.6370     5.7970     4.3980 f          1 214      -0.273800
     34 P55          0.1050     7.2760     3.0700 p5         1 214       0.978700
     35 O56          1.1160     7.4550     4.3090 o          1 214      -0.874500
     36 O57          0.9420     7.2350     1.6960 o          1 214      -0.874500
     37 O58         -0.8420     8.4130     3.0380 o          1 214      -0.874500
     38 C61          5.2900    -3.4040     9.5660 ca         1 214      -0.161000
     39 C62          6.4560    -4.8820    12.7220 ca         1 214      -0.278300
     40 C63          5.8790    -4.8050    11.4860 ca         1 214      -0.128000
     41 C64          5.8650    -3.5570    10.8350 ca         1 214      -0.160300
     42 C65          6.4470    -2.4370    11.4830 ca         1 214       0.456600
     43 N66          6.9910    -2.5820    12.6960 nb         1 214      -0.531000
     44 C67          7.0090    -3.7430    13.3030 ca         1 214       0.371600
     45 C68          5.2970    -2.1610     8.9620 cp         1 214      -0.041000
     46 C69          5.8750    -1.0570     9.6100 ca         1 214      -0.118000
     47 C70          6.4370    -1.1860    10.8400 ca         1 214      -0.141800
     48 P79          7.1780     0.2560    11.6530 p5         1 214       1.037000
     49 O80          6.0620     1.0050    12.5390 o          1 214      -0.887167
     50 O81          8.3840    -0.2250    12.6060 o          1 214      -0.887167
     51 O82          7.7010     1.1870    10.6280 o          1 214      -0.887167
     52 H1          -0.5410     0.0020    -0.9380 ha         1 214       0.109000
     53 H2           1.9240     0.0000    -0.9380 ha         1 214       0.117000
     54 H3           3.1560     0.0020     1.1990 ha         1 214       0.139000
     55 H5          -0.5430    -0.0050     3.3320 ha         1 214       0.139000
     56 H6          -1.7750    -0.0030     1.1960 ha         1 214       0.117000
     57 H10          1.6620     2.7370     5.8100 ha         1 214       0.117000
     58 H12          1.9850     2.4350     1.5630 ha         1 214       0.117000
     59 H13          0.4020     4.3080     1.3090 ha         1 214       0.150000
     60 H15          0.0820     4.6120     5.5570 ha         1 214       0.150000
     61 H20          5.3240     0.1910     4.5360 ha         1 214       0.118500
     62 H22          2.4760    -2.7250     5.8080 ha         1 214       0.118500
     63 H23          3.5770    -2.8530     8.0070 ha         1 214       0.141000
     64 H25          6.5470    -0.1290     6.4410 ha         1 214       0.141000
     65 H321         2.6150    -2.0870     3.5200 hc         1 214       0.044200
     66 H322         3.8820    -0.9950     2.9440 hc         1 214       0.044200
     67 H351         3.6530     1.3960     3.0980 hc         1 214       0.065700
     68 H352         3.3400     1.3680     4.8390 hc         1 214       0.065700
     69 H40         -2.1400    -3.7860     6.4720 ha         1 214       0.111000
     70 H41         -1.8210    -1.6540     7.6170 ha         1 214       0.136000
     71 H44          0.7480    -2.7080     3.5180 ha         1 214       0.130000
     72 H45         -0.8670    -4.3200     4.4330 ha         1 214       0.110000
     73 H61          4.7270    -4.2170     9.1240 ha         1 214       0.089000
     74 H62          6.4420    -5.8170    13.2690 ha         1 214       0.086000
     75 H711         8.7170    -3.7520    14.5740 hc         1 214       0.031033
     76 H712         7.4010    -4.8100    15.1020 hc         1 214       0.031033
     77 H713         7.2610    -3.0580    15.3030 hc         1 214       0.031033
     78 H63          5.4440    -5.6810    11.0190 ha         1 214       0.093000
     79 H69          5.9790    -0.1190     9.0780 ha         1 214       0.173000
     80 C71          7.6410    -3.8480    14.6660 c3         1 214      -0.121400
@<TRIPOS>BOND
     1     1     2 ar  
     2     1     6 ar  
     3     1    52 1   
     4     2     3 ar  
     5     2    53 1   
     6     3     4 ar  
     7     3    54 1   
     8     4     5 ar  
     9     4    19 1   
    10     5     6 ar  
    11     5    55 1   
    12     6    56 1   
    13     7     8 ar  
    14     7    12 ar  
    15     7    57 1   
    16     8     9 ar  
    17     8    22 1   
    18     9    10 ar  
    19     9    58 1   
    20    10    11 ar  
    21    10    59 1   
    22    11    12 ar  
    23    11    31 1   
    24    12    60 1   
    25    13    14 ar  
    26    13    18 ar  
    27    13    61 1   
    28    14    15 ar  
    29    14    21 1   
    30    15    16 ar  
    31    15    62 1   
    32    16    17 ar  
    33    16    63 1   
    34    17    18 ar  
    35    17    45 1   
    36    18    64 1   
    37    19    20 1   
    38    19    21 1   
    39    19    22 1   
    40    20    26 1   
    41    20    30 1   
    42    21    65 1   
    43    21    66 1   
    44    22    67 1   
    45    22    68 1   
    46    23    24 ar  
    47    23    28 ar  
    48    23    69 1   
    49    24    25 ar  
    50    24    70 1   
    51    25    26 ar  
    52    25    29 1   
    53    26    27 ar  
    54    27    28 ar  
    55    27    71 1   
    56    28    72 1   
    57    29    30 2   
    58    31    32 1   
    59    31    33 1   
    60    31    34 1   
    61    34    35 1   
    62    34    36 1   
    63    34    37 1   
    64    38    41 ar  
    65    38    45 ar  
    66    38    73 1   
    67    39    40 ar  
    68    39    44 ar  
    69    39    74 1   
    70    80    44 1   
    71    80    75 1   
    72    80    76 1   
    73    80    77 1   
    74    40    41 ar  
    75    40    78 1   
    76    41    42 ar  
    77    42    43 ar  
    78    42    47 ar  
    79    43    44 ar  
    80    45    46 ar  
    81    46    47 ar  
    82    46    79 1   
    83    47    48 1   
    84    48    49 1   
    85    48    50 1   
    86    48    51 1   
@<TRIPOS>SUBSTRUCTURE
     1 214         1 TEMP              0 ****  ****    0 ROOT
