@<TRIPOS>MOLECULE
214
   80    85     1     0     0
SMALL
bcc


@<TRIPOS>ATOM
      1 C1          0.6880   -0.0230    0.2940 ca        1 214     -0.138000
      2 C2          1.8660   -0.6180    0.7380 ca        1 214     -0.146500
      3 C3          2.2850   -0.4570    2.0590 ca        1 214     -0.098000
      4 C4          1.5280    0.3000    2.9620 ca        1 214     -0.082000
      5 C5          0.3470    0.9040    2.5010 ca        1 214     -0.098000
      6 C6         -0.0680    0.7430    1.1790 ca        1 214     -0.146500
      7 C10         0.4420    3.6300    4.4900 ca        1 214     -0.044500
      8 C11         1.5740    3.0300    3.9020 ca        1 214     -0.338000
      9 C12         1.9570    3.4940    2.6250 ca        1 214     -0.044500
     10 C13         1.2290    4.4330    1.9380 ca        1 214     -0.275500
     11 C14         0.0240    4.9870    2.4930 ca        1 214      0.067000
     12 C15        -0.3150    4.5630    3.8240 ca        1 214     -0.275500
     13 C20         5.0240   -0.1620    6.3830 ca        1 214     -0.134500
     14 C21         3.7100   -0.5650    6.0970 ca        1 214     -0.096000
     15 C22         3.0330   -1.3120    7.0670 ca        1 214     -0.134500
     16 C23         3.6720   -1.7060    8.2400 ca        1 214     -0.131500
     17 C24         5.0270   -1.4160    8.4700 cp        1 214      0.008000
     18 C25         5.6760   -0.5860    7.5380 ca        1 214     -0.131500
     19 C30         1.9510    0.5190    4.4160 c3        1 214      0.149000
     20 N31         0.8140    0.1290    5.2870 na        1 214     -0.146000
     21 C32         3.1730   -0.3980    4.7200 c3        1 214     -0.125000
     22 C35         2.3840    2.0130    4.6010 c3        1 214     -0.046000
     23 C40        -1.6770   -3.1700    5.6370 ca        1 214     -0.176000
     24 C41        -1.7250   -2.0930    6.5080 ca        1 214     -0.062000
     25 C42        -0.8320   -1.0390    6.2920 ca        1 214     -0.131000
     26 C43         0.1060   -1.0860    5.1840 ca        1 214     -0.026000
     27 C44         0.1320   -2.1880    4.3170 ca        1 214     -0.105000
     28 C45        -0.7650   -3.2140    4.5640 ca        1 214     -0.129000
     29 N46        -0.5880    0.1940    6.9570 n2        1 214     -0.117000
     30 N47         0.3470    0.8070    6.3610 n2        1 214      0.092000
     31 C52        -0.7560    5.8630    1.7840 c2        1 214     -0.111000
     32 F53        -0.5770    6.3500    0.5280 f         1 214     -0.149500
     33 F54        -1.9160    6.4730    2.1430 f         1 214     -0.149500
     34 P55        -2.6670    7.9020    0.0450 p3        1 214      2.416000
     35 O56        -3.4260    8.5200    1.1530 o         1 214     -1.142667
     36 O57        -1.5750    8.6840   -0.5720 o         1 214     -1.142667
     37 O58        -3.2730    6.7790   -0.7010 o         1 214     -1.142667
     38 C61         5.2410   -3.1660   10.1940 ca        1 214     -0.187000
     39 C62         6.1090   -5.5380   12.9080 c2        1 214     -0.225000
     40 C63         5.4100   -4.9530   11.8860 c2        1 214     -0.108000
     41 C64         5.9310   -3.7930   11.2480 ca        1 214     -0.104000
     42 C65         7.1960   -3.2660   11.6960 ca        1 214      0.042000
     43 N66         7.8810   -3.8730   12.7310 n2        1 214     -0.042000
     44 C67         7.3590   -4.9520   13.3030 c2        1 214     -0.084000
     45 C68         5.7490   -2.0180    9.5940 cq        1 214     -0.039000
     46 C69         6.9890   -1.5080   10.0540 ca        1 214     -0.153000
     47 C70         7.7300   -2.1050   11.0490 ca        1 214     -0.420000
     48 P79         9.5170   -1.0040   11.1660 p5        1 214      1.592500
     49 O80         9.4200   -0.3830   12.5220 o         1 214     -0.905167
     50 O81        10.5540   -2.0610   10.9540 o         1 214     -0.905167
     51 O82         9.3210   -0.0690   10.0090 o         1 214     -0.905167
     52 H1          0.3670   -0.1400   -0.7500 ha        1 214      0.109000
     53 H2          2.4790   -1.2100    0.0450 ha        1 214      0.123000
     54 H3          3.2340   -0.9280    2.3530 ha        1 214      0.152500
     55 H5         -0.2410    1.5550    3.1740 ha        1 214      0.152500
     56 H6         -0.9790    1.2550    0.8330 ha        1 214      0.123000
     57 H10         0.1600    3.3430    5.5140 ha        1 214      0.086500
     58 H12         2.8720    3.0830    2.1680 ha        1 214      0.086500
     59 H13         1.5440    4.7830    0.9470 ha        1 214      0.106500
     60 H15        -1.1970    5.0160    4.2940 ha        1 214      0.106500
     61 H20         5.5620    0.4780    5.6680 ha        1 214      0.117000
     62 H22         1.9930   -1.6270    6.9000 ha        1 214      0.117000
     63 H23         3.0960   -2.2710    8.9880 ha        1 214      0.148000
     64 H25         6.7240   -0.2860    7.7180 ha        1 214      0.148000
     65 H321        4.0040   -0.0140    4.0650 hc        1 214      0.083500
     66 H322        2.9070   -1.4360    4.3670 hc        1 214      0.083500
     67 H351        3.4380    2.0570    4.2100 hc        1 214      0.084000
     68 H352        2.4350    2.2360    5.6990 hc        1 214      0.084000
     69 H40        -2.3630   -4.0160    5.7830 ha        1 214      0.108000
     70 H41        -2.4350   -2.0590    7.3440 ha        1 214      0.131000
     71 H44         0.8360   -2.2180    3.4720 ha        1 214      0.152000
     72 H45        -0.7690   -4.0930    3.9020 ha        1 214      0.113000
     73 H61         4.3030   -3.6240    9.8500 ha        1 214      0.089000
     74 H62         5.7450   -6.4310   13.4280 ha        1 214      0.089000
     75 H711        9.0510   -5.1200   14.6640 hc        1 214      0.062000
     76 H712        7.4420   -5.6150   15.3440 hc        1 214      0.062000
     77 H713        8.2920   -6.6880   14.1550 hc        1 214      0.062000
     78 H63         4.4470   -5.3610   11.5480 ha        1 214      0.093000
     79 H69         7.4190   -0.5890    9.5980 ha        1 214      0.201000
     80 C71         8.0830   -5.6250   14.4280 c3        1 214     -0.147000
@<TRIPOS>BOND
     1    1    2 1   
     2    1    6 1   
     3    1   52 1   
     4    2    3 1   
     5    2   53 1   
     6    3    4 1   
     7    3   54 1   
     8    4    5 1   
     9    4   19 1   
    10    5    6 1   
    11    5   55 1   
    12    6   56 1   
    13    7    8 1   
    14    7   12 1   
    15    7   57 1   
    16    8    9 1   
    17    8   22 1   
    18    9   10 1   
    19    9   58 1   
    20   10   11 1   
    21   10   59 1   
    22   11   12 1   
    23   11   31 1   
    24   12   60 1   
    25   13   14 1   
    26   13   18 1   
    27   13   61 1   
    28   14   15 1   
    29   14   21 1   
    30   15   16 1   
    31   15   62 1   
    32   16   17 1   
    33   16   63 1   
    34   17   18 1   
    35   17   45 1   
    36   18   64 1   
    37   19   20 1   
    38   19   21 1   
    39   19   22 1   
    40   20   26 1   
    41   20   30 1   
    42   21   65 1   
    43   21   66 1   
    44   22   67 1   
    45   22   68 1   
    46   23   24 1   
    47   23   28 1   
    48   23   69 1   
    49   24   25 1   
    50   24   70 1   
    51   25   26 1   
    52   25   29 1   
    53   26   27 1   
    54   27   28 1   
    55   27   71 1   
    56   28   72 1   
    57   29   30 1   
    58   31   32 1   
    59   31   33 1   
    60   34   35 1   
    61   34   36 1   
    62   34   37 1   
    63   38   41 1   
    64   38   45 1   
    65   38   73 1   
    66   39   40 1   
    67   39   44 1   
    68   39   74 1   
    69   40   41 1   
    70   40   78 1   
    71   41   42 1   
    72   42   43 1   
    73   42   47 1   
    74   43   44 1   
    75   44   80 1   
    76   45   46 1   
    77   46   47 1   
    78   46   79 1   
    79   47   48 1   
    80   48   49 1   
    81   48   50 1   
    82   48   51 1   
    83   75   80 1   
    84   76   80 1   
    85   77   80 1   
@<TRIPOS>SUBSTRUCTURE
     1 214         1 TEMP              0 ****  ****    0 ROOT
