@<TRIPOS>MOLECULE
215
   61    65     1     0     0
SMALL
bcc


@<TRIPOS>ATOM
      1 C3           0.0000     0.0000     0.0000 cc         1 215       0.375800
      2 C5           0.6370     0.0000     2.0750 cd         1 215       0.259000
      3 C6           0.5890    -0.0010     3.5520 ca         1 215      -0.161500
      4 C21          1.4950    -0.7730     4.2810 ca         1 215      -0.039000
      5 C23          1.4930    -0.8780     8.1250 c3         1 215       0.173400
      6 C31         -4.5500     1.1690    -4.0280 c3         1 215      -0.048700
      7 C32         -3.5230     0.1700    -4.5040 ce         1 215       0.422900
      8 O34         -2.4940    -1.3530    -5.9640 oh         1 215      -0.371500
      9 N33         -3.5260    -0.4350    -5.6480 n2         1 215      -0.401200
     10 C30         -4.0930     1.5830    -2.6230 c3         1 215       0.034900
     11 C29         -2.8260     0.8110    -2.3430 ca         1 215      -0.080300
     12 C9          -2.0130     0.8040    -1.2280 ca         1 215      -0.074000
     13 C28         -2.5170     0.0040    -3.4360 ca         1 215      -0.182900
     14 C10         -1.3720    -0.8070    -3.3980 ca         1 215      -0.053000
     15 C11         -0.5610    -0.8090    -2.2900 ca         1 215      -0.115000
     16 C8          -0.8730    -0.0000    -1.1950 ca         1 215      -0.085500
     17 C2           1.3860     0.0000     0.0000 cd         1 215      -0.377600
     18 C7           2.2700    -0.0000    -1.1810 ca         1 215       0.042000
     19 C16          2.0490     0.8830    -2.2470 ca         1 215      -0.220800
     20 C15          2.9000     0.8480    -3.3310 ca         1 215       0.410200
     21 N14          3.9090    -0.0010    -3.3730 nb         1 215      -0.585000
     22 C13          4.1530    -0.8500    -2.3920 ca         1 215       0.410200
     23 C12          3.3580    -0.8800    -1.2670 ca         1 215      -0.220800
     24 N4          -0.4080    -0.0050     1.2800 nc         1 215      -0.589000
     25 N1           1.7740     0.0000     1.3210 na         1 215       0.278100
     26 C20          1.4500    -0.7670     5.6590 ca         1 215      -0.183000
     27 C19          0.4990    -0.0030     6.3210 ca         1 215       0.145100
     28 C18         -0.4040     0.7680     5.5990 ca         1 215      -0.183000
     29 C17         -0.3620     0.7710     4.2210 ca         1 215      -0.039000
     30 O22          0.4540    -0.0030     7.6790 os         1 215      -0.278900
     31 C24          1.4980    -0.9240     9.6550 c3         1 215       0.128800
     32 N25          0.2470    -1.5310    10.1300 n3         1 215      -0.522600
     33 C27          0.4150    -1.7690    11.5700 c3         1 215       0.163100
     34 C26         -0.7980    -0.5090     9.9890 c3         1 215       0.163100
     35 H21          2.2380    -1.3700     3.7650 ha         1 215       0.108000
     36 H231         1.3200    -1.8730     7.7340 h1         1 215       0.018200
     37 H232         2.4490    -0.5120     7.7720 h1         1 215       0.018200
     38 H311        -5.5200     0.6920    -3.9680 hc         1 215       0.032700
     39 H312        -4.5430     2.0340    -4.6810 hc         1 215       0.032700
     40 H34         -2.6400    -1.7050    -6.8270 ho         1 215       0.413000
     41 H301        -4.8510     1.3040    -1.9020 hc         1 215       0.026200
     42 H302        -3.8760     2.6450    -2.6140 hc         1 215       0.026200
     43 H9          -2.2610     1.4250    -0.3760 ha         1 215       0.117000
     44 H10         -1.1280    -1.4350    -4.2460 ha         1 215       0.122000
     45 H11          0.2830    -1.4870    -2.2390 ha         1 215       0.114000
     46 H16          1.2220     1.5830    -2.2190 ha         1 215       0.120000
     47 H15          2.7370     1.5270    -4.1590 h4         1 215      -0.018400
     48 H13          4.9950    -1.5270    -2.4690 h4         1 215      -0.018400
     49 H12          3.5640    -1.5790    -0.4660 ha         1 215       0.120000
     50 HN1          2.7150     0.0000     1.6630 hn         1 215       0.125700
     51 H20          2.1530    -1.3660     6.2260 ha         1 215       0.127000
     52 H18         -1.1430     1.3640     6.1200 ha         1 215       0.127000
     53 H17         -1.0670     1.3710     3.6590 ha         1 215       0.108000
     54 H241         1.5830     0.0820    10.0460 h1         1 215       0.020200
     55 H242         2.3390    -1.5160     9.9950 h1         1 215       0.020200
     56 H271        -0.4960    -2.1950    11.9740 h1         1 215       0.007200
     57 H272         0.6260    -0.8300    12.0690 h1         1 215       0.007200
     58 H273         1.2370    -2.4550    11.7300 h1         1 215       0.007200
     59 H261        -1.5260    -0.6250    10.7830 h1         1 215       0.007200
     60 H262        -0.3510     0.4760    10.0520 h1         1 215       0.007200
     61 H263        -1.2880    -0.6220     9.0300 h1         1 215       0.007200
@<TRIPOS>BOND
     1     1    16 1   
     2     1    17 2   
     3     1    24 1   
     4     2     3 1   
     5     2    24 2   
     6     2    25 1   
     7     3     4 ar  
     8     3    29 ar  
     9     4    26 ar  
    10     4    35 1   
    11     5    30 1   
    12     5    31 1   
    13     5    36 1   
    14     5    37 1   
    15     6     7 1   
    16     6    10 1   
    17     6    38 1   
    18     6    39 1   
    19     7     9 2   
    20     7    13 1   
    21     8     9 1   
    22     8    40 1   
    23    10    11 1   
    24    10    41 1   
    25    10    42 1   
    26    11    12 ar  
    27    11    13 ar  
    28    12    16 ar  
    29    12    43 1   
    30    13    14 ar  
    31    14    15 ar  
    32    14    44 1   
    33    15    16 ar  
    34    15    45 1   
    35    17    18 1   
    36    17    25 1   
    37    18    19 ar  
    38    18    23 ar  
    39    19    20 ar  
    40    19    46 1   
    41    20    21 ar  
    42    20    47 1   
    43    21    22 ar  
    44    22    23 ar  
    45    22    48 1   
    46    23    49 1   
    47    25    50 1   
    48    26    27 ar  
    49    26    51 1   
    50    27    28 ar  
    51    27    30 1   
    52    28    29 ar  
    53    28    52 1   
    54    29    53 1   
    55    31    32 1   
    56    31    54 1   
    57    31    55 1   
    58    32    33 1   
    59    32    34 1   
    60    33    56 1   
    61    33    57 1   
    62    33    58 1   
    63    34    59 1   
    64    34    60 1   
    65    34    61 1   
@<TRIPOS>SUBSTRUCTURE
     1 215         1 TEMP              0 ****  ****    0 ROOT
