@<TRIPOS>MOLECULE
molecule
   60    62     1     0     0
SMALL
bcc


@<TRIPOS>ATOM
      1 O1           0.0000     0.0000     0.0000 o          1 216      -0.704500
      2 O4           4.9810    -1.8140     1.0660 oh         1 216      -0.606300
      3 O5           3.9960    -1.8350    -1.8580 oh         1 216      -0.606300
      4 N2           1.8150     0.0000     1.1790 n          1 216      -0.489300
      5 N7           1.8240     0.0000    -1.1970 n          1 216      -0.489300
      6 C1           1.2150     0.0000     0.0000 c          1 216       0.824500
      7 C3           3.2510    -0.1600     1.3710 c3         1 216       0.100200
      8 C4           3.8020    -1.2740     0.4700 c3         1 216       0.109600
      9 C5           4.1410    -0.7650    -0.9220 c3         1 216       0.109600
     10 C6           3.2310     0.3790    -1.3340 c3         1 216       0.100200
     11 C22          0.5270    -1.1790     2.8660 c2         1 216      -0.191700
     12 C23          0.8480    -1.5760     4.0720 c2         1 216      -0.217500
     13 C31          3.9560     1.1520     1.0240 c3         1 216      -0.055100
     14 C32          4.6650     1.6800     2.2440 ca         1 216      -0.091300
     15 C33          5.9740     1.3130     2.4960 ca         1 216      -0.123750
     16 C34          6.6240     1.7980     3.6160 ca         1 216      -0.126750
     17 C35          5.9670     2.6490     4.4830 ca         1 216      -0.128500
     18 C36          4.6590     3.0170     4.2300 ca         1 216      -0.126750
     19 C37          4.0090     2.5360     3.1080 ca         1 216      -0.123750
     20 C61          3.5100     0.7450    -2.7930 c3         1 216      -0.055100
     21 C62          4.9050     1.3030    -2.9120 ca         1 216      -0.091300
     22 C63          5.9510     0.4760    -3.2730 ca         1 216      -0.123750
     23 C64          7.2310     0.9880    -3.3820 ca         1 216      -0.126750
     24 C65          7.4630     2.3260    -3.1310 ca         1 216      -0.128500
     25 C66          6.4170     3.1540    -2.7710 ca         1 216      -0.126750
     26 C67          5.1370     2.6440    -2.6660 ca         1 216      -0.123750
     27 C71          1.0640    -0.3840    -2.3890 c3         1 216       0.152200
     28 C72          1.0740    -1.8850    -2.5290 c2         1 216      -0.191700
     29 C73         -0.0540    -2.5510    -2.5200 c2         1 216      -0.217500
     30 HO4          4.8190    -2.7030     1.3340 ho         1 216       0.406000
     31 HO5          4.7170    -2.4350    -1.7650 ho         1 216       0.406000
     32 H3           3.4460    -0.4120     2.4070 h1         1 216       0.093700
     33 H4           3.0560    -2.0550     0.3840 h1         1 216       0.064700
     34 H5           5.1670    -0.4190    -0.9290 h1         1 216       0.064700
     35 H6           3.4300     1.2370    -0.7020 h1         1 216       0.093700
     36 H211         0.1160     0.7740     2.1250 h1         1 216       0.066200
     37 H212         1.5560     0.6640     3.1470 h1         1 216       0.066200
     38 H22         -0.0640    -1.8200     2.2230 ha         1 216       0.141500
     39 H231         0.5220    -2.5460     4.4280 ha         1 216       0.112000
     40 H232         1.4400    -0.9350     4.7150 ha         1 216       0.112000
     41 H311         4.6780     0.9760     0.2350 hc         1 216       0.068200
     42 H312         3.2250     1.8780     0.6890 hc         1 216       0.068200
     43 H33          6.4900     0.6460     1.8170 ha         1 216       0.134250
     44 H34          7.6500     1.5100     3.8130 ha         1 216       0.130250
     45 H35          6.4760     3.0270     5.3610 ha         1 216       0.129500
     46 H36          4.1440     3.6860     4.9080 ha         1 216       0.130250
     47 H37          2.9840     2.8250     2.9100 ha         1 216       0.134250
     48 H611         2.7950     1.4890    -3.1220 hc         1 216       0.068200
     49 H612         3.4220    -0.1400    -3.4100 hc         1 216       0.068200
     50 H63          5.7690    -0.5730    -3.4700 ha         1 216       0.134250
     51 H64          8.0510     0.3400    -3.6650 ha         1 216       0.130250
     52 H65          8.4670     2.7270    -3.2150 ha         1 216       0.129500
     53 H66          6.5990     4.2040    -2.5760 ha         1 216       0.130250
     54 H67          4.3160     3.2930    -2.3830 ha         1 216       0.134250
     55 H711         0.0420    -0.0370    -2.2940 h1         1 216       0.066200
     56 H712         1.5170     0.0630    -3.2660 h1         1 216       0.066200
     57 H72          2.0140    -2.4130    -2.6360 ha         1 216       0.141500
     58 H731        -0.0470    -3.6300    -2.6200 ha         1 216       0.112000
     59 H732        -0.9940    -2.0230    -2.4120 ha         1 216       0.112000
     60 C21          0.9810     0.1710     2.3720 c3         1 216       0.152200
@<TRIPOS>BOND
     1     1     6 2
     2     2     8 1
     3     2    30 1
     4     3     9 1
     5     3    31 1
     6     4     6 1
     7     4     7 1
     8     4    60 1
     9     5     6 1
    10     5    10 1
    11     5    27 1
    12     7     8 1
    13     7    13 1
    14     7    32 1
    15     8     9 1
    16     8    33 1
    17     9    10 1
    18     9    34 1
    19    10    20 1
    20    10    35 1
    21    60    11 1
    22    60    36 1
    23    60    37 1
    24    11    12 2
    25    11    38 1
    26    12    39 1
    27    12    40 1
    28    13    14 1
    29    13    41 1
    30    13    42 1
    31    14    15 ar
    32    14    19 ar
    33    15    16 ar
    34    15    43 1
    35    16    17 ar
    36    16    44 1
    37    17    18 ar
    38    17    45 1
    39    18    19 ar
    40    18    46 1
    41    19    47 1
    42    20    21 1
    43    20    48 1
    44    20    49 1
    45    21    22 ar
    46    21    26 ar
    47    22    23 ar
    48    22    50 1
    49    23    24 ar
    50    23    51 1
    51    24    25 ar
    52    24    52 1
    53    25    26 ar
    54    25    53 1
    55    26    54 1
    56    27    28 1
    57    27    55 1
    58    27    56 1
    59    28    29 2
    60    28    57 1
    61    29    58 1
    62    29    59 1
@<TRIPOS>SUBSTRUCTURE
     1 216         1 TEMP              0 ****  ****    0 ROOT
