@<TRIPOS>MOLECULE
217
   20    19     1     0     0
SMALL
bcc


@<TRIPOS>ATOM
      1 C1          0.0210   -0.0490   -0.0410 c3        1 217      0.090400
      2 C2          1.5540   -0.0140   -0.0180 c3        1 217      0.144100
      3 C3          2.0590   -0.0140    1.4200 c3        1 217     -0.073400
      4 C4          3.5560   -0.2460    1.4700 c3        1 217     -0.051200
      5 C5          4.0720   -0.1720    2.8580 c2        1 217     -0.163200
      6 C6          4.9020   -1.0640    3.3930 c2        1 217     -0.227000
      7 O1         -0.3550   -0.0200   -1.4090 oh        1 217     -0.612800
      8 O2          2.0300    1.1730   -0.6370 oh        1 217     -0.602800
      9 H11        -0.3550   -0.9890    0.4410 h1        1 217      0.034700
     10 H12        -0.3960    0.8440    0.4950 h1        1 217      0.034700
     11 H2          1.9510   -0.9070   -0.5790 h1        1 217      0.046700
     12 H31         1.5260   -0.8190    1.9880 hc        1 217      0.050700
     13 H32         1.8120    0.9710    1.8950 hc        1 217      0.050700
     14 H41         4.0640    0.5420    0.8470 hc        1 217      0.056200
     15 H42         3.7980   -1.2410    1.0080 hc        1 217      0.056200
     16 H5          3.7280    0.7040    3.4350 ha        1 217      0.119000
     17 H61         5.2600   -1.9460    2.8460 ha        1 217      0.110500
     18 H62         5.2820   -0.9700    4.4180 ha        1 217      0.110500
     19 HO1        -1.3150    0.0620   -1.4340 ho        1 217      0.408000
     20 HO2         1.6300    1.2020   -1.5170 ho        1 217      0.417000
@<TRIPOS>BOND
     1    1    2 1   
     2    1    7 1   
     3    1    9 1   
     4    1   10 1   
     5    2    3 1   
     6    2    8 1   
     7    2   11 1   
     8    3    4 1   
     9    3   12 1   
    10    3   13 1   
    11    4    5 1   
    12    4   14 1   
    13    4   15 1   
    14    5    6 2   
    15    5   16 1   
    16    6   17 1   
    17    6   18 1   
    18    7   19 1   
    19    8   20 1   
@<TRIPOS>SUBSTRUCTURE
     1 217         1 TEMP              0 ****  ****    0 ROOT
