@<TRIPOS>MOLECULE
molecule
   20    19     1     0     0
SMALL
bcc


@<TRIPOS>ATOM
      1 C1           0.0000     0.0000     0.0000 c3         1 217       0.116400
      2 C2           1.5310     0.0000     0.0000 c3         1 217       0.150100
      3 C3           2.0410     0.0000     1.4420 c3         1 217      -0.078400
      4 C4           3.5650    -0.1250     1.4440 c3         1 217      -0.048200
      5 C5           4.0680    -0.1260     2.8650 c2         1 217      -0.171200
      6 C6           4.8210    -1.1080     3.2930 c2         1 217      -0.225000
      7 O1          -0.4760    -0.1180    -1.3420 oh         1 217      -0.614800
      8 O2           2.0070     1.1670    -0.6740 oh         1 217      -0.601800
      9 H11         -0.3610     0.9260     0.4310 h1         1 217       0.029700
     10 H12         -0.3610    -0.8370     0.5860 h1         1 217       0.029700
     11 H2           1.8920    -0.8840    -0.5110 h1         1 217       0.041700
     12 H31          1.6090    -0.8370     1.9770 hc         1 217       0.052700
     13 H32          1.7540     0.9250     1.9260 hc         1 217       0.052700
     14 H41          3.8520    -1.0500     0.9590 hc         1 217       0.053200
     15 H42          3.9970     0.7120     0.9090 hc         1 217       0.053200
     16 H5           3.8060     0.6870     3.5320 ha         1 217       0.124000
     17 H61          5.1820    -1.1070     4.3150 ha         1 217       0.111500
     18 H62          5.0830    -1.9200     2.6270 ha         1 217       0.111500
     19 HO1         -1.4140    -0.2140    -1.3360 ho         1 217       0.404000
     20 HO2          2.2290     0.9480    -1.5640 ho         1 217       0.410000
@<TRIPOS>BOND
     1     1     2 1   
     2     1     7 1   
     3     1     9 1   
     4     1    10 1   
     5     2     3 1   
     6     2     8 1   
     7     2    11 1   
     8     3     4 1   
     9     3    12 1   
    10     3    13 1   
    11     4     5 1   
    12     4    14 1   
    13     4    15 1   
    14     5     6 2   
    15     5    16 1   
    16     6    17 1   
    17     6    18 1   
    18     7    19 1   
    19     8    20 1   
@<TRIPOS>SUBSTRUCTURE
     1 217         1 TEMP              0 ****  ****    0 ROOT
