@<TRIPOS>MOLECULE
molecule
   38    39     1     0     0
SMALL
bcc


@<TRIPOS>ATOM
      1 CM2          0.0000     0.0000     0.0000 c3         1 218      -0.133400
      2 C2A          1.5070     0.0000     0.0000 ca         1 218       0.745300
      3 N1A          2.1470     0.0000     1.1520 nb         1 218      -0.729000
      4 C6A          3.4720     0.0000     1.1970 ca         1 218       0.495200
      5 C5A          4.1860     0.0020     0.0150 ca         1 218      -0.449900
      6 C7A          5.6920     0.0020     0.0230 c3         1 218       0.061600
      7 N3           6.1820     1.3780    -0.0940 na         1 218       0.082900
      8 C2           6.5010     1.8470    -1.2840 ca         1 218      -0.044300
      9 C1           6.9650     3.1400    -1.4330 ca         1 218      -0.139000
     10 C6           7.0930     3.9450    -0.3110 ca         1 218      -0.019000
     11 C5           6.7490     3.4160     0.9230 ca         1 218      -0.087300
     12 CM6          6.8690     4.2520     2.1720 c3         1 218      -0.046100
     13 CM7          8.2170     3.9760     2.8420 c3         1 218       0.147400
     14 OM7          8.3320     4.7680     4.0260 oh         1 218      -0.595800
     15 C4           6.2860     2.1160     0.9940 ca         1 218       0.004400
     16 CM4          5.9070     1.5310     2.3310 c3         1 218      -0.080800
     17 C4A          3.4770     0.0020    -1.1880 ca         1 218       0.753200
     18 N4A          4.1470     0.0020    -2.4000 nv         1 218      -1.087500
     19 N3A          2.1470    -0.0040    -1.1510 nb         1 218      -0.744000
     20 HM21        -0.3610    -0.3990     0.9400 hc         1 218       0.077367
     21 HM22        -0.3610    -0.6150    -0.8160 hc         1 218       0.077367
     22 HM23        -0.3610     1.0140    -0.1240 hc         1 218       0.077367
     23 H6A          3.9880     0.0000     2.1490 h4         1 218       0.031100
     24 H7A1         6.0580    -0.5840    -0.8110 h1         1 218       0.101200
     25 H7A2         6.0480    -0.4310     0.9510 h1         1 218       0.101200
     26 H2           6.3980     1.2120    -2.1560 h4         1 218       0.205000
     27 H1           7.2250     3.5200    -2.4130 ha         1 218       0.192000
     28 H6           7.4540     4.9630    -0.3970 ha         1 218       0.188000
     29 HM61         6.0670     3.9990     2.8550 hc         1 218       0.088200
     30 HM62         6.8040     5.3020     1.9110 hc         1 218       0.088200
     31 HM71         8.2820     2.9260     3.1020 h1         1 218       0.025200
     32 HM72         9.0190     4.2290     2.1590 h1         1 218       0.025200
     33 HOM7         9.2170     4.7240     4.3490 ho         1 218       0.425000
     34 HM41         4.8910     1.8170     2.5750 hc         1 218       0.088367
     35 HM42         6.5800     1.9060     3.0930 hc         1 218       0.088367
     36 HM43         5.9780     0.4510     2.2860 hc         1 218       0.088367
     37 H4A1         4.1640     0.8300    -2.9610 hn         1 218       0.449800
     38 H4A2         4.5600    -0.8430    -2.7430 hn         1 218       0.449800
@<TRIPOS>BOND
     1     1     2 1   
     2     1    20 1   
     3     1    21 1   
     4     1    22 1   
     5     2     3 ar  
     6     2    19 ar  
     7     3     4 ar  
     8     4     5 ar  
     9     4    23 1   
    10     5     6 1   
    11     5    17 ar  
    12     6     7 1   
    13     6    24 1   
    14     6    25 1   
    15     7     8 1   
    16     7    15 2   
    17     8     9 ar  
    18     8    26 1   
    19     9    10 ar  
    20     9    27 1   
    21    10    11 ar  
    22    10    28 1   
    23    11    12 1   
    24    11    15 ar  
    25    12    13 1   
    26    12    29 1   
    27    12    30 1   
    28    13    14 1   
    29    13    31 1   
    30    13    32 1   
    31    14    33 1   
    32    15    16 1   
    33    16    34 1   
    34    16    35 1   
    35    16    36 1   
    36    17    18 1   
    37    17    19 ar  
    38    18    37 1   
    39    18    38 1   
@<TRIPOS>SUBSTRUCTURE
     1 218         1 TEMP              0 ****  ****    0 ROOT
