@<TRIPOS>MOLECULE
219
   38    39     1     0     0
SMALL
bcc


@<TRIPOS>ATOM
      1 C1          0.4650    0.5630   -0.0150 ca        1 219     -0.074000
      2 C2          1.8400    0.3010   -0.0810 ca        1 219     -0.225000
      3 C3          2.5200   -0.0520    1.0740 ca        1 219     -0.049000
      4 C4          1.8550   -0.1500    2.3050 ca        1 219     -0.285600
      5 C5          0.4590    0.1130    2.3750 ca        1 219      0.318100
      6 C6         -0.2200    0.4780    1.1810 ca        1 219     -0.233000
      7 C7          2.5940   -0.5110    3.5140 c         1 219      0.594500
      8 O8         -0.1080    0.0710    3.5820 os        1 219     -0.494500
      9 P9         -1.6750   -0.3430    4.0630 p5        1 219      1.443800
     10 O10        -1.4660   -1.9670    3.9890 os        1 219     -0.570200
     11 O11        -2.5690    0.0520    2.9670 o         1 219     -0.804000
     12 C12        -0.7560   -2.4860    5.0770 c3        1 219      0.177400
     13 O17         3.8110   -0.7460    3.5350 o         1 219     -0.601100
     14 O19        -1.7260    0.0590    5.4750 o         1 219     -0.804000
     15 C21        -0.6520   -4.0090    5.0480 c3        1 219     -0.058700
     16 C24         0.1120   -4.5330    3.8420 c3        1 219     -0.056400
     17 C25        -0.7200   -4.5710    2.5780 c3        1 219     -0.077400
     18 C26        -2.0040   -5.3470    2.7880 c3        1 219     -0.064400
     19 C27        -2.8020   -4.7310    3.9180 c3        1 219     -0.077400
     20 C28        -2.0000   -4.6970    5.2010 c3        1 219     -0.056400
     21 H1         -0.0770    0.8440   -0.9310 ha        1 219      0.114000
     22 H2          2.3700    0.3740   -1.0390 ha        1 219      0.113000
     23 H3          3.6010   -0.2630    1.0490 ha        1 219      0.131000
     24 H6         -1.3080    0.6680    1.2360 ha        1 219      0.191000
     25 H7          1.9840   -0.5630    4.4460 h4        1 219      0.021200
     26 H121       -1.2690   -2.1600    6.0270 h1        1 219      0.031200
     27 H122        0.2780   -2.0370    5.0590 h1        1 219      0.031200
     28 H21        -0.0420   -4.2710    5.9640 hc        1 219      0.025700
     29 H241        1.0130   -3.8880    3.6700 hc        1 219      0.025200
     30 H242        0.4750   -5.5700    4.0740 hc        1 219      0.025200
     31 H251       -0.9720   -3.5180    2.2770 hc        1 219      0.049450
     32 H252       -0.1240   -5.0380    1.7520 hc        1 219      0.049450
     33 H261       -2.6120   -5.3330    1.8460 hc        1 219      0.020200
     34 H262       -1.7700   -6.4180    3.0240 hc        1 219      0.020200
     35 H271       -3.7440   -5.3160    4.0820 hc        1 219      0.049450
     36 H272       -3.0860   -3.6810    3.6370 hc        1 219      0.049450
     37 H281       -2.5930   -4.1690    5.9930 hc        1 219      0.025200
     38 H282       -1.8250   -5.7490    5.5530 hc        1 219      0.025200
@<TRIPOS>BOND
     1    1    2 ar  
     2    1    6 ar  
     3    1   21 1   
     4    2    3 ar  
     5    2   22 1   
     6    3    4 ar  
     7    3   23 1   
     8    4    5 ar  
     9    4    7 1   
    10    5    6 ar  
    11    5    8 1   
    12    6   24 1   
    13    7   13 2   
    14    7   25 1   
    15    8    9 1   
    16    9   10 1   
    17    9   11 1   
    18    9   14 1   
    19   10   12 1   
    20   12   15 1   
    21   12   26 1   
    22   12   27 1   
    23   15   16 1   
    24   15   20 1   
    25   15   28 1   
    26   16   17 1   
    27   16   29 1   
    28   16   30 1   
    29   17   18 1   
    30   17   31 1   
    31   17   32 1   
    32   18   19 1   
    33   18   33 1   
    34   18   34 1   
    35   19   20 1   
    36   19   35 1   
    37   19   36 1   
    38   20   37 1   
    39   20   38 1   
@<TRIPOS>SUBSTRUCTURE
     1 219         1 TEMP              0 ****  ****    0 ROOT
