@<TRIPOS>MOLECULE
molecule
   38    39     1     0     0
SMALL
bcc


@<TRIPOS>ATOM
      1 C1           0.0000     0.0000     0.0000 ca         1 219      -0.097000
      2 C2           1.3860     0.0000     0.0000 ca         1 219      -0.185000
      3 C3           2.0810     0.0000     1.1890 ca         1 219      -0.089000
      4 C4           1.3860     0.0020     2.4030 ca         1 219      -0.214600
      5 C5          -0.0190     0.0020     2.3980 ca         1 219       0.254100
      6 C6          -0.7000     0.0070     1.1900 ca         1 219      -0.155000
      7 C7           2.1190     0.0020     3.6750 c          1 219       0.583500
      8 O8          -0.7050     0.0040     3.5670 os         1 219      -0.446500
      9 P9          -1.3650    -1.4160     3.9400 p5         1 219       1.337800
     10 O10         -2.2570    -1.2610     5.2720 os         1 219      -0.602200
     11 O11         -0.2010    -2.4990     4.1980 o          1 219      -0.810500
     12 C12         -3.0570    -2.3190     5.8020 c3         1 219       0.233400
     13 O17          1.5130     0.0040     4.7250 o          1 219      -0.495100
     14 O19         -2.2220    -1.8700     2.8230 o          1 219      -0.810500
     15 C21         -3.7710    -1.8360     7.0650 c3         1 219      -0.076700
     16 C24         -2.7360    -1.5300     8.1490 c3         1 219      -0.072900
     17 C25         -3.4500    -1.0470     9.4140 c3         1 219      -0.079900
     18 C26         -4.4010    -2.1370     9.9110 c3         1 219      -0.079400
     19 C27         -5.4360    -2.4440     8.8260 c3         1 219      -0.079900
     20 C28         -4.7220    -2.9270     7.5630 c3         1 219      -0.072900
     21 H1          -0.5380    -0.0050    -0.9400 ha         1 219       0.116000
     22 H2           1.9250     0.0000    -0.9400 ha         1 219       0.109000
     23 H3           3.1620    -0.0700     1.1840 ha         1 219       0.114000
     24 H6          -1.7830     0.0420     1.1800 ha         1 219       0.163000
     25 H7           3.2030     0.0210     3.6750 h4         1 219      -0.031800
     26 H12         -3.7920    -2.6200     5.0650 h1         1 219       0.030200
     27 H12A        -2.4240    -3.1630     6.0460 h1         1 219       0.030200
     28 H21         -4.3370    -0.9390     6.8450 hc         1 219       0.053700
     29 H24         -2.0650    -0.7560     7.7970 hc         1 219       0.047200
     30 H24A        -2.1740    -2.4280     8.3740 hc         1 219       0.047200
     31 H25         -2.7160    -0.8330    10.1820 hc         1 219       0.031200
     32 H25A        -4.0150    -0.1510     9.1880 hc         1 219       0.031200
     33 H26         -3.8360    -3.0340    10.1340 hc         1 219       0.029200
     34 H26A        -4.9080    -1.7920    10.8050 hc         1 219       0.029200
     35 H27         -5.9980    -1.5460     8.6000 hc         1 219       0.031200
     36 H27A        -6.1070    -3.2180     9.1780 hc         1 219       0.031200
     37 H28         -5.4560    -3.1420     6.7950 hc         1 219       0.047200
     38 H28A        -4.1560    -3.8230     7.7890 hc         1 219       0.047200
@<TRIPOS>BOND
     1     2     1 ar  
     2     6     1 ar  
     3     1    21 1   
     4     3     2 ar  
     5     2    22 1   
     6     4     3 ar  
     7     3    23 1   
     8     7     4 1   
     9     4     5 ar  
    10     8     5 1   
    11     5     6 ar  
    12     6    24 1   
    13    13     7 2   
    14     7    25 1   
    15     9     8 1   
    16    14     9 1   
    17    10     9 1   
    18     9    11 1   
    19    12    10 1   
    20    15    12 1   
    21    12    26 1   
    22    12    27 1   
    23    16    15 1   
    24    15    20 1   
    25    15    28 1   
    26    16    17 1   
    27    16    29 1   
    28    16    30 1   
    29    17    18 1   
    30    17    31 1   
    31    17    32 1   
    32    18    19 1   
    33    18    33 1   
    34    18    34 1   
    35    20    19 1   
    36    19    35 1   
    37    19    36 1   
    38    20    37 1   
    39    20    38 1   
@<TRIPOS>SUBSTRUCTURE
     1 219         1 TEMP              0 ****  ****    0 ROOT
