@<TRIPOS>MOLECULE
molecule
   38    41     1     0     0
SMALL
bcc


@<TRIPOS>ATOM
      1 O01          0.0000     0.0000     0.0000 oh         1 21A      -0.606300
      2 C02          1.3570     0.0000     0.0000 ca         1 21A       0.636600
      3 C03          2.0450     0.0000     1.2150 ca         1 21A      -0.022200
      4 O04          1.3620     0.0020     2.3900 oh         1 21A      -0.498100
      5 C05          3.4310    -0.0010     1.2110 ca         1 21A      -0.101000
      6 C06          4.0930    -0.0030    -0.0200 cp         1 21A      -0.169300
      7 C07          5.5730    -0.0050    -0.0780 cp         1 21A      -0.018000
      8 C08          6.3010     0.9210     0.6700 ca         1 21A      -0.118500
      9 C09          7.6770     0.9200     0.6160 ca         1 21A      -0.095500
     10 C10          8.3430    -0.0070    -0.1860 ca         1 21A      -0.140500
     11 C11          9.8210    -0.0050    -0.2490 cc         1 21A       0.473000
     12 N12         10.6550     0.8270     0.4240 na         1 21A      -0.190400
     13 N13         11.9510     0.4350     0.0430 nc         1 21A      -0.208800
     14 N14         11.8180    -0.5460    -0.7820 nd         1 21A      -0.002000
     15 N15         10.5750    -0.8150    -0.9630 nd         1 21A      -0.411000
     16 C16          7.6140    -0.9330    -0.9350 ca         1 21A      -0.095500
     17 C17          6.2390    -0.9350    -0.8770 ca         1 21A      -0.118500
     18 C18          3.3340    -0.0030    -1.2010 cq         1 21A       0.520800
     19 N19          2.0080    -0.0080    -1.1490 nb         1 21A      -0.728000
     20 C20          4.0180    -0.0050    -2.5140 cq         1 21A      -0.178500
     21 C21          3.4650    -0.6970    -3.5910 ca         1 21A      -0.072500
     22 C22          4.1060    -0.6950    -4.8120 ca         1 21A      -0.176500
     23 C23          5.2980    -0.0070    -4.9710 ca         1 21A       0.149900
     24 F24          5.9220    -0.0080    -6.1690 f          1 21A      -0.135900
     25 C25          5.8520     0.6830    -3.9040 ca         1 21A      -0.176500
     26 C26          5.2160     0.6910    -2.6800 ca         1 21A      -0.072500
     27 H2           1.4190    -0.8510     2.7880 ho         1 21A       0.423000
     28 H3           3.9880    -0.0010     2.1410 ha         1 21A       0.156000
     29 H4           5.7840     1.6410     1.2930 ha         1 21A       0.149500
     30 H5           8.2430     1.6380     1.1970 ha         1 21A       0.146500
     31 H6          10.4030     1.5610     1.0550 hn         1 21A       0.338700
     32 H7           8.1310    -1.6540    -1.5560 ha         1 21A       0.146500
     33 H8           5.6740    -1.6540    -1.4580 ha         1 21A       0.149500
     34 H9           2.5330    -1.2350    -3.4680 ha         1 21A       0.152000
     35 H10          3.6760    -1.2320    -5.6490 ha         1 21A       0.150500
     36 H11          6.7830     1.2220    -4.0330 ha         1 21A       0.150500
     37 H12          5.6490     1.2310    -1.8470 ha         1 21A       0.152000
     38 H13         -0.3140     0.7260    -0.5140 ho         1 21A       0.439000
@<TRIPOS>BOND
     1    24    23 1
     2    13    12 1
     3    13    14 2
     4    12    11 1
     5    14    15 1
     6    23    22 ar
     7    23    25 ar
     8    22    21 ar
     9    11    15 2
    10    11    10 1
    11    25    26 ar
    12    21    20 1
    13    10    16 ar
    14    10     9 ar
    15    16    17 ar
    16     9     8 ar
    17    26    20 2
    18    20    18 1
    19    17     7 ar
    20     8     7 ar
    21     7     6 1
    22    18     6 1
    23    18    19 2
    24     6     5 ar
    25    19     2 ar
    26     5     3 ar
    27     2     3 ar
    28     2     1 1
    29     3     4 1
    30     4    27 1
    31     5    28 1
    32     8    29 1
    33     9    30 1
    34    12    31 1
    35    16    32 1
    36    17    33 1
    37    21    34 1
    38    22    35 1
    39    25    36 1
    40    26    37 1
    41     1    38 1
@<TRIPOS>SUBSTRUCTURE
     1 21A         1 TEMP              0 ****  ****    0 ROOT
