@<TRIPOS>MOLECULE
21A
   38    41     1     0     0
SMALL
bcc


@<TRIPOS>ATOM
      1 O01         0.0750    0.0190    0.2170 oh        1 21A     -0.634300
      2 C02         1.4470    0.0320    0.0800 ca        1 21A      0.563600
      3 C03         2.1860    0.0520    1.2990 ca        1 21A      0.010800
      4 O04         1.6010    0.0700    2.5380 oh        1 21A     -0.483100
      5 C05         3.5780    0.0530    1.2160 ca        1 21A     -0.099000
      6 C06         4.1920    0.0380   -0.0490 cp        1 21A     -0.146300
      7 C07         5.6520    0.0010   -0.1080 cp        1 21A     -0.010000
      8 C08         6.4030    0.9170    0.6460 ca        1 21A     -0.118500
      9 C09         7.7930    0.8720    0.6300 ca        1 21A     -0.095500
     10 C10         8.4570   -0.0980   -0.1350 ca        1 21A     -0.138500
     11 C11         9.9080   -0.1650   -0.1620 cc        1 21A      0.451000
     12 N12        10.7840    0.3890    0.7970 na        1 21A     -0.182400
     13 N13        12.0410    0.1100    0.4240 nc        1 21A     -0.192800
     14 N14        11.9820   -0.5590   -0.6690 nd        1 21A     -0.046000
     15 N15        10.7350   -0.7630   -1.0820 nd        1 21A     -0.369000
     16 C16         7.7120   -1.0140   -0.8900 ca        1 21A     -0.095500
     17 C17         6.3200   -0.9620   -0.8740 ca        1 21A     -0.118500
     18 C18         3.3740    0.0410   -1.2070 cq        1 21A      0.476800
     19 N19         2.0170    0.0280   -1.1430 nb        1 21A     -0.696000
     20 C20         3.9650    0.0730   -2.5610 cq        1 21A     -0.162500
     21 C21         3.7550   -0.9960   -3.4400 ca        1 21A     -0.079000
     22 C22         4.2870   -0.9660   -4.7250 ca        1 21A     -0.169000
     23 C23         5.0290    0.1550   -5.1410 ca        1 21A      0.136900
     24 F24         5.5480    0.1940   -6.3910 f         1 21A     -0.136900
     25 C25         5.2310    1.2380   -4.2650 ca        1 21A     -0.169000
     26 C26         4.6950    1.1910   -2.9830 ca        1 21A     -0.079000
     27 H2          0.6380    0.0500    2.4140 ho        1 21A      0.444000
     28 H3          4.1820    0.0570    2.1360 ha        1 21A      0.164000
     29 H4          5.8860    1.6790    1.2500 ha        1 21A      0.147500
     30 H5          8.3570    1.6140    1.2140 ha        1 21A      0.147500
     31 H6         10.5670    0.8950    1.6230 hn        1 21A      0.333700
     32 H7          8.2240   -1.7770   -1.5000 ha        1 21A      0.147500
     33 H8          5.7380   -1.6800   -1.4750 ha        1 21A      0.147500
     34 H9          3.1600   -1.8640   -3.1160 ha        1 21A      0.145000
     35 H10         4.1300   -1.8040   -5.4190 ha        1 21A      0.152500
     36 H11         5.8080    2.1110   -4.6010 ha        1 21A      0.152500
     37 H12         4.8470    2.0380   -2.2970 ha        1 21A      0.145000
     38 H13        -0.3390    0.0140   -0.6620 ho        1 21A      0.454000
@<TRIPOS>BOND
     1    1    2 1   
     2    1   38 1   
     3    2    3 ar  
     4    2   19 ar  
     5    3    4 1   
     6    3    5 ar  
     7    4   27 1   
     8    5    6 ar  
     9    5   28 1   
    10    6    7 1   
    11    6   18 2   
    12    7    8 ar  
    13    7   17 ar  
    14    8    9 ar  
    15    8   29 1   
    16    9   10 ar  
    17    9   30 1   
    18   10   11 1   
    19   10   16 ar  
    20   11   12 1   
    21   11   15 2   
    22   12   13 1   
    23   12   31 1   
    24   13   14 2   
    25   14   15 1   
    26   16   17 ar  
    27   16   32 1   
    28   17   33 1   
    29   18   19 1   
    30   18   20 1   
    31   20   21 1   
    32   20   26 2   
    33   21   22 ar  
    34   21   34 1   
    35   22   23 ar  
    36   22   35 1   
    37   23   24 1   
    38   23   25 ar  
    39   25   26 ar  
    40   25   36 1   
    41   26   37 1   
@<TRIPOS>SUBSTRUCTURE
     1 21A         1 TEMP              0 ****  ****    0 ROOT
