@<TRIPOS>MOLECULE
molecule
   41    43     1     0     0
SMALL
bcc


@<TRIPOS>ATOM
      1 C16          0.0000     0.0000     0.0000 c3         1 21B       0.148100
      2 N            1.4690     0.0000     0.0000 n7         1 21B      -0.820200
      3 C15          1.9960     0.0000     1.3710 c3         1 21B       0.160800
      4 C14          3.5250     0.0010     1.3300 c3         1 21B      -0.061200
      5 C13          4.0650    -0.0000     2.7380 c2         1 21B      -0.159200
      6 C4           4.9550    -0.9260     3.1120 ce         1 21B      -0.018400
      7 C3           5.5340    -1.8280     2.0920 ca         1 21B      -0.040300
      8 C17          5.9330    -1.2240     0.8890 ca         1 21B      -0.114000
      9 C18          6.5160    -1.9650    -0.1120 ca         1 21B      -0.133000
     10 C            6.7160    -3.3210     0.0780 ca         1 21B      -0.124500
     11 C5           5.3430    -1.0240     4.5370 ca         1 21B      -0.040300
     12 C10          5.9730     0.0310     5.1910 ca         1 21B      -0.114000
     13 C9           6.3060    -0.1130     6.5250 ca         1 21B      -0.133000
     14 C8           6.0130    -1.2910     7.1890 ca         1 21B      -0.124500
     15 C7           5.3890    -2.3350     6.5290 ca         1 21B      -0.132500
     16 C6           5.0570    -2.1970     5.1900 ca         1 21B      -0.063300
     17 C11          4.4000    -3.3270     4.4580 c3         1 21B      -0.030100
     18 C12          5.3150    -4.0130     3.4820 c3         1 21B      -0.030100
     19 C2           5.7120    -3.1840     2.2790 ca         1 21B      -0.063300
     20 C1           6.3200    -3.9170     1.2540 ca         1 21B      -0.132500
     21 H1          -0.3610    -0.0040    -1.0210 h1         1 21B       0.030033
     22 H2          -0.3610    -0.8830     0.5140 h1         1 21B       0.030033
     23 H3          -0.3610     0.8860     0.5070 h1         1 21B       0.030033
     24 H4           1.8030     0.8090    -0.4860 hn         1 21B       0.348800
     25 H6           1.6490    -0.8850     1.8910 h1         1 21B       0.033200
     26 H7           1.6480     0.8840     1.8920 h1         1 21B       0.033200
     27 H8           3.8720     0.8860     0.8110 hc         1 21B       0.062200
     28 H9           3.8730    -0.8840     0.8100 hc         1 21B       0.062200
     29 H10          3.7620     0.7720     3.4340 ha         1 21B       0.132000
     30 H11          5.7740    -0.1620     0.7450 ha         1 21B       0.135500
     31 H12          6.8260    -1.4900    -1.0350 ha         1 21B       0.130000
     32 H13          7.1750    -3.9160    -0.7030 ha         1 21B       0.128500
     33 H14          6.1990     0.9500     4.6630 ha         1 21B       0.135500
     34 H15          6.7950     0.6980     7.0520 ha         1 21B       0.130000
     35 H16          6.2760    -1.3980     8.2340 ha         1 21B       0.128500
     36 H17          5.1620    -3.2550     7.0550 ha         1 21B       0.129000
     37 H18          4.0800    -4.0590     5.1900 hc         1 21B       0.054450
     38 H19          3.5600    -2.9250     3.9060 hc         1 21B       0.054450
     39 H20          6.2220    -4.2780     4.0120 hc         1 21B       0.054450
     40 H21          4.8040    -4.8960     3.1170 hc         1 21B       0.054450
     41 H22          6.4830    -4.9800     1.3880 ha         1 21B       0.129000
@<TRIPOS>BOND
     1     1     2 1
     2     2     3 1
     3    20    10 ar
     4    20    19 ar
     5    18    19 1
     6    18    17 1
     7    10     9 ar
     8    19     7 ar
     9     3     4 1
    10     9     8 ar
    11     5     4 1
    12     5     6 2
    13     7     8 ar
    14     7     6 1
    15    17    16 1
    16     6    11 1
    17    16    11 ar
    18    16    15 ar
    19    11    12 ar
    20    15    14 ar
    21    12    13 ar
    22    14    13 ar
    23     1    21 1
    24     1    22 1
    25     1    23 1
    26     2    24 1
    27     3    25 1
    28     3    26 1
    29     4    27 1
    30     4    28 1
    31     5    29 1
    32     8    30 1
    33     9    31 1
    34    10    32 1
    35    12    33 1
    36    13    34 1
    37    14    35 1
    38    15    36 1
    39    17    37 1
    40    17    38 1
    41    18    39 1
    42    18    40 1
    43    20    41 1
@<TRIPOS>SUBSTRUCTURE
     1 21B         1 TEMP              0 ****  ****    0 ROOT
