@<TRIPOS>MOLECULE
21B
   41    43     1     0     0
SMALL
bcc


@<TRIPOS>ATOM
      1 C16          0.0000     0.0000     0.0000 c3         1 21B       0.180100
      2 N            1.4690     0.0000     0.0000 n7         1 21B      -0.586200
      3 C15          1.9960     0.0000     1.3710 c3         1 21B       0.147800
      4 C14          3.5250     0.0010     1.3300 c3         1 21B      -0.017200
      5 C13          4.0650    -0.0000     2.7380 c2         1 21B      -0.144200
      6 C4           4.9550    -0.9260     3.1120 ce         1 21B      -0.010400
      7 C3           5.5340    -1.8280     2.0920 ca         1 21B      -0.031300
      8 C17          5.9330    -1.2240     0.8890 ca         1 21B      -0.095000
      9 C18          6.5160    -1.9650    -0.1120 ca         1 21B      -0.106500
     10 C            6.7160    -3.3210     0.0780 ca         1 21B      -0.098500
     11 C5           5.3430    -1.0240     4.5370 ca         1 21B      -0.031300
     12 C10          5.9730     0.0310     5.1910 ca         1 21B      -0.095000
     13 C9           6.3060    -0.1130     6.5250 ca         1 21B      -0.106500
     14 C8           6.0130    -1.2910     7.1890 ca         1 21B      -0.098500
     15 C7           5.3890    -2.3350     6.5290 ca         1 21B      -0.106500
     16 C6           5.0570    -2.1970     5.1900 ca         1 21B      -0.070800
     17 C11          4.4000    -3.3270     4.4580 c3         1 21B       0.033900
     18 C12          5.3150    -4.0130     3.4820 c3         1 21B       0.033900
     19 C2           5.7120    -3.1840     2.2790 ca         1 21B      -0.070800
     20 C1           6.3200    -3.9170     1.2540 ca         1 21B      -0.106500
     21 H1          -0.3610    -0.0040    -1.0210 h1         1 21B      -0.002300
     22 H2          -0.3610    -0.8830     0.5140 h1         1 21B      -0.002300
     23 H3          -0.3610     0.8860     0.5070 h1         1 21B      -0.002300
     24 H4           1.8030     0.8090    -0.4860 hn         1 21B       0.248800
     25 H6           1.6490    -0.8850     1.8910 h1         1 21B       0.006700
     26 H7           1.6480     0.8840     1.8920 h1         1 21B       0.006700
     27 H8           3.8720     0.8860     0.8110 hc         1 21B       0.037700
     28 H9           3.8730    -0.8840     0.8100 hc         1 21B       0.037700
     29 H10          3.7620     0.7720     3.4340 ha         1 21B       0.110000
     30 H11          5.7740    -0.1620     0.7450 ha         1 21B       0.113000
     31 H12          6.8260    -1.4900    -1.0350 ha         1 21B       0.103000
     32 H13          7.1750    -3.9160    -0.7030 ha         1 21B       0.101500
     33 H14          6.1990     0.9500     4.6630 ha         1 21B       0.113000
     34 H15          6.7950     0.6980     7.0520 ha         1 21B       0.103000
     35 H16          6.2760    -1.3980     8.2340 ha         1 21B       0.101500
     36 H17          5.1620    -3.2550     7.0550 ha         1 21B       0.104500
     37 H18          4.0800    -4.0590     5.1900 hc         1 21B       0.023700
     38 H19          3.5600    -2.9250     3.9060 hc         1 21B       0.023700
     39 H20          6.2220    -4.2780     4.0120 hc         1 21B       0.023700
     40 H21          4.8040    -4.8960     3.1170 hc         1 21B       0.023700
     41 H22          6.4830    -4.9800     1.3880 ha         1 21B       0.104500
@<TRIPOS>BOND
     1     1     2 1   
     2     1    21 1   
     3     1    22 1   
     4     1    23 1   
     5     2     3 1   
     6     2    24 1   
     7     3     4 1   
     8     3    25 1   
     9     3    26 1   
    10     4     5 1   
    11     4    27 1   
    12     4    28 1   
    13     5     6 2   
    14     5    29 1   
    15     6     7 1   
    16     6    11 1   
    17     7     8 ar  
    18     7    19 ar  
    19     8     9 ar  
    20     8    30 1   
    21     9    10 ar  
    22     9    31 1   
    23    10    20 ar  
    24    10    32 1   
    25    11    12 ar  
    26    11    16 ar  
    27    12    13 ar  
    28    12    33 1   
    29    13    14 ar  
    30    13    34 1   
    31    14    15 ar  
    32    14    35 1   
    33    15    16 ar  
    34    15    36 1   
    35    16    17 1   
    36    17    18 1   
    37    17    37 1   
    38    17    38 1   
    39    18    19 1   
    40    18    39 1   
    41    18    40 1   
    42    19    20 ar  
    43    20    41 1   
@<TRIPOS>SUBSTRUCTURE
     1 21B         1 TEMP              0 ****  ****    0 ROOT
