@<TRIPOS>MOLECULE
molecule
   46    47     1     0     0
SMALL
bcc


@<TRIPOS>ATOM
      1 C13          0.0000     0.0000     0.0000 c3         1 21C       0.241500
      2 C17         -3.1840     0.0230    -0.8650 c3         1 21C      -0.230600
      3 C20          1.5300     0.0000     0.0000 c3         1 21C      -0.114900
      4 C21          2.0370     0.0000     1.4450 c3         1 21C       0.105000
      5 C02          1.5840     7.3940     6.3530 ca         1 21C      -0.007600
      6 C03          0.5970     6.6230     5.7640 ca         1 21C       0.064400
      7 Cl2         -1.0710     7.0700     5.9370 cl         1 21C      -0.088400
      8 C05          0.9380     5.4960     5.0370 ca         1 21C      -0.196000
      9 C06          2.2700     5.1380     4.8980 ca         1 21C       0.204600
     10 N07          2.6180     3.9980     4.1620 nu         1 21C      -0.805600
     11 C08          1.5730     3.1820     3.5380 c3         1 21C       0.160800
     12 N10          1.4340     1.1350     2.1590 n          1 21C      -0.491800
     13 C11         -0.0280     1.2800     2.1450 c3         1 21C       0.105000
     14 C12         -0.5120     1.2660     0.6920 c3         1 21C      -0.114900
     15 N14         -0.4890    -0.0330    -1.3800 n7         1 21C      -0.910100
     16 S15         -1.8730    -0.8650    -1.7500 s6         1 21C       1.326900
     17 O16         -1.6700    -2.1520    -1.1810 o          1 21C      -0.625800
     18 C18         -4.5280    -0.6580    -1.1290 c3         1 21C      -0.073100
     19 O19         -2.0170    -0.7000    -3.1530 o          1 21C      -0.625800
     20 O22          3.4130     1.8930     2.8140 o          1 21C      -0.602100
     21 C23          3.2640     5.9150     5.4920 ca         1 21C       0.050100
     22 O24          4.5720     5.5680     5.3570 oh         1 21C      -0.506100
     23 C25          2.9160     7.0450     6.2120 ca         1 21C      -0.122000
     24 H131        -0.3580    -0.8710     0.5350 h1         1 21C       0.074700
     25 H171        -2.9750     0.0100     0.1980 h1         1 21C       0.094700
     26 H172        -3.2240     1.0480    -1.2120 h1         1 21C       0.094700
     27 H201         1.8910    -0.8860    -0.5080 hc         1 21C       0.059950
     28 H202         1.8910     0.8860    -0.5080 hc         1 21C       0.059950
     29 H211         3.1160     0.1010     1.4510 h1         1 21C       0.062200
     30 H212         1.7510    -0.9260     1.9300 h1         1 21C       0.062200
     31 H051         0.1640     4.8940     4.5760 ha         1 21C       0.147000
     32 H071         3.5820     3.7550     4.0410 hn         1 21C       0.481800
     33 H081         1.0140     3.7880     2.8350 h1         1 21C       0.057700
     34 H082         0.9040     2.8060     4.3030 h1         1 21C       0.057700
     35 H111        -0.4790     0.4560     2.6850 h1         1 21C       0.062200
     36 H112        -0.3030     2.2200     2.6090 h1         1 21C       0.062200
     37 H121        -0.1300     2.1380     0.1760 hc         1 21C       0.059950
     38 H122        -1.5950     1.2740     0.6720 hc         1 21C       0.059950
     39 H141         0.0220     0.4340    -2.1030 hn         1 21C       0.458800
     40 H182        -4.4900    -1.6820    -0.7780 hc         1 21C       0.052033
     41 H183        -5.3120    -0.1260    -0.6030 hc         1 21C       0.052033
     42 H2          -4.7360    -0.6480    -2.1920 hc         1 21C       0.052033
     43 H241         4.9610     5.4720     6.2110 ho         1 21C       0.422000
     44 H251         3.6860     7.6500     6.6750 ha         1 21C       0.156000
     45 C09          2.2070     2.0240     2.8120 c          1 21C       0.658100
     46 Cl1          1.1500     8.8060     7.2640 cl         1 21C      -0.090400
@<TRIPOS>BOND
     1     1     3 1
     2     1    14 1
     3     1    15 1
     4     2    16 1
     5     2    18 1
     6     3     4 1
     7     4    12 1
     8    46     5 1
     9     5     6 ar
    10     5    23 ar
    11     6     7 1
    12     6     8 ar
    13     8     9 ar
    14     9    10 1
    15     9    21 ar
    16    10    11 1
    17    11    45 1
    18    45    12 1
    19    45    20 2
    20    12    13 1
    21    13    14 1
    22    15    16 1
    23    16    17 2
    24    16    19 2
    25    21    22 1
    26    21    23 ar
    27     1    24 1
    28     2    25 1
    29     2    26 1
    30     3    27 1
    31     3    28 1
    32     4    29 1
    33     4    30 1
    34     8    31 1
    35    10    32 1
    36    11    33 1
    37    11    34 1
    38    13    35 1
    39    13    36 1
    40    14    37 1
    41    14    38 1
    42    15    39 1
    43    18    40 1
    44    18    41 1
    45    18    42 1
    46    22    43 1
    47    23    44 1
@<TRIPOS>SUBSTRUCTURE
     1 21C         1 TEMP              0 ****  ****    0 ROOT
