@<TRIPOS>MOLECULE
21D
   24    25     1     0     0
SMALL
bcc


@<TRIPOS>ATOM
      1 OAE         0.1410   -0.2140   -0.5600 o         1 21D     -0.754867
      2 SAQ         1.4300   -0.0170    0.0150 s6        1 21D      1.450100
      3 OAA         1.3820    0.0950    1.4290 o         1 21D     -0.754867
      4 OAB         2.3710   -0.9870   -0.4170 o         1 21D     -0.754867
      5 CAM         1.9840    1.5420   -0.6020 ca        1 21D     -0.264500
      6 CAI         1.1550    2.2330   -1.4550 ca        1 21D     -0.070000
      7 CAH         1.5220    3.4860   -1.9940 ca        1 21D     -0.175000
      8 CAL         2.7310    4.0500   -1.6740 ca        1 21D     -0.088000
      9 CAP         3.6310    3.3800   -0.7950 ca        1 21D      0.020000
     10 CAO         3.2430    2.1190   -0.2630 ca        1 21D      0.020000
     11 CAK         4.1430    1.4500    0.6160 ca        1 21D     -0.088000
     12 CAG         5.3510    2.0130    0.9360 ca        1 21D     -0.175000
     13 CAJ         5.7190    3.2670    0.3970 ca        1 21D     -0.070000
     14 CAN         4.8900    3.9580   -0.4560 ca        1 21D     -0.264500
     15 SAR         5.4440    5.5160   -1.0730 s6        1 21D      1.450100
     16 OAF         5.4950    5.4020   -2.4870 o         1 21D     -0.754867
     17 OAD         4.5010    6.4860   -0.6440 o         1 21D     -0.754867
     18 OAC         6.7310    5.7150   -0.4960 o         1 21D     -0.754867
     19 H1          0.1760    1.8000   -1.7280 ha        1 21D      0.139000
     20 H2          0.8290    4.0030   -2.6710 ha        1 21D      0.100000
     21 H3          3.0340    5.0280   -2.0860 ha        1 21D      0.151000
     22 H4          3.8400    0.4710    1.0280 ha        1 21D      0.151000
     23 H5          6.0450    1.4970    1.6140 ha        1 21D      0.100000
     24 H6          6.6980    3.7000    0.6700 ha        1 21D      0.139000
@<TRIPOS>BOND
     1    1    2 1   
     2    2    3 1   
     3    2    4 1   
     4    2    5 1   
     5    5    6 ar  
     6    5   10 ar  
     7    6    7 ar  
     8    6   19 1   
     9    7    8 ar  
    10    7   20 1   
    11    8    9 ar  
    12    8   21 1   
    13    9   10 ar  
    14    9   14 ar  
    15   10   11 ar  
    16   11   12 ar  
    17   11   22 1   
    18   12   13 ar  
    19   12   23 1   
    20   13   14 ar  
    21   13   24 1   
    22   14   15 1   
    23   15   16 1   
    24   15   17 1   
    25   15   18 1   
@<TRIPOS>SUBSTRUCTURE
     1 21D         1 TEMP              0 ****  ****    0 ROOT
