@<TRIPOS>MOLECULE
molecule
   24    25     1     0     0
SMALL
bcc


@<TRIPOS>ATOM
      1 OAE          0.0000     0.0000     0.0000 o          1 21D      -0.725867
      2 SAQ          1.5220     0.0000     0.0000 s6         1 21D       1.343600
      3 OAA          1.9230     0.0000     1.3630 o          1 21D      -0.725867
      4 OAB          1.9240    -0.9990    -0.9280 o          1 21D      -0.725867
      5 CAM          2.0440     1.5420    -0.6730 ca         1 21D      -0.260500
      6 CAI          1.2740     2.1830    -1.5940 ca         1 21D      -0.051000
      7 CAH          1.6710     3.4030    -2.1380 ca         1 21D      -0.175500
      8 CAL          2.8410     3.9900    -1.7630 ca         1 21D      -0.098500
      9 CAP          3.6620     3.3580    -0.8140 ca         1 21D       0.013500
     10 CAO          3.2560     2.1200    -0.2570 ca         1 21D       0.013500
     11 CAK          4.0770     1.4900     0.6930 ca         1 21D      -0.098500
     12 CAG          5.2490     2.0730     1.0640 ca         1 21D      -0.175500
     13 CAJ          5.6490     3.2910     0.5160 ca         1 21D      -0.051000
     14 CAN          4.8770     3.9340    -0.4020 ca         1 21D      -0.260500
     15 SAR          5.3990     5.4760    -1.0760 s6         1 21D       1.343600
     16 OAF          4.8950     5.5250    -2.4030 o          1 21D      -0.725867
     17 OAD          4.6820     6.5720    -0.3020 o          1 21D      -0.725867
     18 OAC          6.7800     5.6030    -0.7640 o          1 21D      -0.725867
     19 H1           0.3390     1.7370    -1.9100 ha         1 21D       0.129000
     20 H2           1.0390     3.8920    -2.8690 ha         1 21D       0.098000
     21 H3           3.1360     4.9390    -2.1940 ha         1 21D       0.179500
     22 H4           3.7790     0.5430     1.1280 ha         1 21D       0.179500
     23 H5           5.8820     1.5820     1.7930 ha         1 21D       0.098000
     24 H6           6.5870     3.7350     0.8290 ha         1 21D       0.129000
@<TRIPOS>BOND
     1    18    15 1
     2    16    15 1
     3    15    17 1
     4    15    14 1
     5     8     7 ar
     6     8     9 ar
     7     7     6 ar
     8    14     9 ar
     9    14    13 ar
    10     9    10 ar
    11     6     5 ar
    12    13    12 ar
    13    10     5 ar
    14    10    11 ar
    15     5     2 1
    16    12    11 ar
    17     2     4 1
    18     2     3 1
    19     2     1 1
    20     6    19 1
    21     7    20 1
    22     8    21 1
    23    11    22 1
    24    12    23 1
    25    13    24 1
@<TRIPOS>SUBSTRUCTURE
     1 21D         1 TEMP              0 ****  ****    0 ROOT
