@<TRIPOS>MOLECULE
21E
   43    45     1     0     0
SMALL
bcc


@<TRIPOS>ATOM
      1 CAI          0.0000     0.0000     0.0000 ca         1 21E      -0.191300
      2 CAL          1.3630     0.0000     0.0000 ca         1 21E      -0.019000
      3 CAT          2.0310     0.0000     1.2400 ca         1 21E      -0.137300
      4 CAJ          3.4320    -0.0000     1.3120 ca         1 21E      -0.064000
      5 CAG          4.0450     0.0000     2.5290 ca         1 21E      -0.082000
      6 CAH          3.2980    -0.0010     3.7050 ca         1 21E      -0.057000
      7 CAK          1.9380    -0.0000     3.6730 ca         1 21E      -0.171300
      8 CAU          1.2690     0.0000     2.4350 ca         1 21E       0.378600
      9 NAM         -0.0660     0.0000     2.3760 nb         1 21E      -0.648000
     10 CAQ         -0.6980     0.0010     1.2190 ca         1 21E       0.352300
     11 CAR         -2.1800     0.0010     1.2040 cc         1 21E       0.390300
     12 NAN         -2.9500     0.4470     0.2390 nd         1 21E      -0.593800
     13 NAV         -4.2900     0.2750     0.5960 na         1 21E       0.554400
     14 CAW         -5.4380     0.6580    -0.2270 c3         1 21E      -0.077300
     15 CAB         -4.9440     1.2700    -1.5390 c3         1 21E      -0.007767
     16 CAC         -6.2860    -0.5790    -0.5280 c3         1 21E      -0.007767
     17 CAA         -6.2860     1.6860     0.5260 c3         1 21E      -0.007767
     18 CAP         -4.3640    -0.2940     1.8160 cd         1 21E      -0.041700
     19 NAE         -5.5210    -0.6160     2.4960 nv         1 21E      -0.525200
     20 CAS         -3.0630    -0.5030     2.2620 cc         1 21E      -0.514900
     21 CAO         -2.6550    -1.0990     3.5390 c          1 21E       0.442700
     22 OAF         -2.4860    -2.3010     3.6240 o          1 21E      -0.420100
     23 NAD         -2.4660    -0.3150     4.6190 nz         1 21E       0.198600
     24 H1          -0.5430     0.0000    -0.9370 ha         1 21E       0.136000
     25 H2           1.9180    -0.0010    -0.9300 ha         1 21E       0.125000
     26 H3           4.0240     0.0010     0.4050 ha         1 21E       0.120000
     27 H4           5.1270     0.0000     2.5830 ha         1 21E       0.118000
     28 H5           3.8090     0.0000     4.6610 ha         1 21E       0.112000
     29 H6           1.3720    -0.0010     4.5970 ha         1 21E       0.094000
     30 H7          -4.3260     2.1340    -1.3250 hc         1 21E       0.024811
     31 H8          -4.3620     0.5360    -2.0840 hc         1 21E       0.024811
     32 H9          -5.7930     1.5750    -2.1390 hc         1 21E       0.024811
     33 H10         -6.8770    -0.4040    -1.4190 hc         1 21E       0.024811
     34 H11         -5.6370    -1.4320    -0.6880 hc         1 21E       0.024811
     35 H12         -6.9450    -0.7780     0.3080 hc         1 21E       0.024811
     36 H13         -6.8820     2.2510    -0.1800 hc         1 21E       0.024811
     37 H14         -5.6360     2.3610     1.0700 hc         1 21E       0.024811
     38 H15         -6.9400     1.1750     1.2230 hc         1 21E       0.024811
     39 H16         -5.9020    -1.5390     2.4250 hn         1 21E       0.294300
     40 H17         -5.9470     0.0550     3.1050 hn         1 21E       0.294300
     41 H18         -3.2520    -0.3980     5.2330 hn         1 21E       0.244800
     42 H19         -1.6360    -0.6020     5.0980 hn         1 21E       0.244800
     43 HAD3        -2.3700     0.6380     4.3270 hn         1 21E       0.244800
@<TRIPOS>BOND
     1     1     2 ar  
     2     1    10 ar  
     3     1    24 1   
     4     2     3 ar  
     5     2    25 1   
     6     3     4 ar  
     7     3     8 ar  
     8     4     5 ar  
     9     4    26 1   
    10     5     6 ar  
    11     5    27 1   
    12     6     7 ar  
    13     6    28 1   
    14     7     8 ar  
    15     7    29 1   
    16     8     9 ar  
    17     9    10 ar  
    18    10    11 1   
    19    11    12 2   
    20    11    20 1   
    21    12    13 1   
    22    13    14 1   
    23    13    18 1   
    24    14    15 1   
    25    14    16 1   
    26    14    17 1   
    27    15    30 1   
    28    15    31 1   
    29    15    32 1   
    30    16    33 1   
    31    16    34 1   
    32    16    35 1   
    33    17    36 1   
    34    17    37 1   
    35    17    38 1   
    36    18    19 1   
    37    18    20 2   
    38    19    39 1   
    39    19    40 1   
    40    20    21 1   
    41    21    22 2   
    42    21    23 1   
    43    23    41 1   
    44    23    42 1   
    45    23    43 1   
@<TRIPOS>SUBSTRUCTURE
     1 21E         1 TEMP              0 ****  ****    0 ROOT
