@<TRIPOS>MOLECULE
molecule
   49    50     1     0     0
SMALL
bcc


@<TRIPOS>ATOM
      1 C13          0.0000     0.0000     0.0000 c3         1 21F       0.250500
      2 C17         -2.6750     3.4810    -1.7170 c3         1 21F      -0.072100
      3 C20          1.5300     0.0000     0.0000 c3         1 21F      -0.114400
      4 C21          2.0370     0.0000     1.4450 c3         1 21F       0.104500
      5 C26          2.9120    -7.0410     6.2190 ca         1 21F      -0.173000
      6 C02          1.5810    -7.3930     6.3530 ca         1 21F       0.031400
      7 C03          0.5960    -6.6220     5.7620 ca         1 21F       0.068900
      8 I04         -1.4180    -7.1620     5.9710 i          1 21F      -0.151900
      9 C05          0.9370    -5.4970     5.0350 ca         1 21F      -0.158000
     10 C06          2.2700    -5.1390     4.8970 ca         1 21F       0.188600
     11 N07          2.6180    -3.9990     4.1620 nu         1 21F      -0.809600
     12 C08          1.5720    -3.1830     3.5370 c3         1 21F       0.163800
     13 N10          1.4330    -1.1350     2.1570 n          1 21F      -0.493800
     14 C11         -0.0280    -1.2800     2.1440 c3         1 21F       0.104500
     15 C12         -0.5120    -1.2650     0.6910 c3         1 21F      -0.114400
     16 N14         -0.4890     0.0340    -1.3800 n7         1 21F      -0.912100
     17 S15         -1.8720     0.8660    -1.7500 s6         1 21F       1.326900
     18 C16         -1.4610     2.6000    -1.4110 c3         1 21F      -0.228600
     19 O18         -2.0450     0.6580    -3.1450 o          1 21F      -0.627800
     20 O19         -2.8280     0.3880    -0.8140 o          1 21F      -0.627800
     21 O22          3.4130    -1.8940     2.8150 o          1 21F      -0.606100
     22 C23          3.2620    -5.9150     5.4910 ca         1 21F       0.093100
     23 O24          4.5700    -5.5670     5.3600 os         1 21F      -0.327900
     24 C25          5.5320    -6.4100     5.9970 c3         1 21F       0.129700
     25 H131        -0.3580     0.8710     0.5360 h1         1 21F       0.051700
     26 H171        -2.9480     3.3700    -2.7590 hc         1 21F       0.052033
     27 H172        -3.5070     3.1800    -1.0920 hc         1 21F       0.052033
     28 H1          -2.4290     4.5170    -1.5160 hc         1 21F       0.052033
     29 H201         1.8910     0.8860    -0.5080 hc         1 21F       0.065200
     30 H202         1.8910    -0.8860    -0.5080 hc         1 21F       0.065200
     31 H211         1.7500     0.9250     1.9300 h1         1 21F       0.060450
     32 H212         3.1150    -0.1010     1.4510 h1         1 21F       0.060450
     33 H261         3.6820    -7.6460     6.6820 ha         1 21F       0.154000
     34 H051         0.1630    -4.8940     4.5740 ha         1 21F       0.147000
     35 H071         3.5770    -3.7240     4.0900 hn         1 21F       0.478800
     36 H081         0.9030    -2.8080     4.3010 h1         1 21F       0.058200
     37 H082         1.0140    -3.7890     2.8330 h1         1 21F       0.058200
     38 H111        -0.4790    -0.4570     2.6850 h1         1 21F       0.060450
     39 H112        -0.3030    -2.2200     2.6080 h1         1 21F       0.060450
     40 H121        -1.5960    -1.2730     0.6720 hc         1 21F       0.065200
     41 H122        -0.1300    -2.1380     0.1750 hc         1 21F       0.065200
     42 H141         0.0060    -0.4580    -2.0980 hn         1 21F       0.459800
     43 H161        -0.6290     2.9020    -2.0340 h1         1 21F       0.095200
     44 H162        -1.1900     2.7090    -0.3680 h1         1 21F       0.095200
     45 H251         5.4560    -7.4130     5.5950 h1         1 21F       0.044367
     46 H252         6.5280    -6.0230     5.8140 h1         1 21F       0.044367
     47 H253         5.3440    -6.4320     7.0630 h1         1 21F       0.044367
     48 C09          2.2060    -2.0250     2.8110 c          1 21F       0.658100
     49 Cl1          1.1480    -8.8060     7.2650 cl         1 21F      -0.094400
@<TRIPOS>BOND
     1     1     3 1   
     2     1    15 1   
     3     1    16 1   
     4     2    18 1   
     5     3     4 1   
     6     4    13 1   
     7     5     6 ar  
     8     5    22 ar  
     9    49     6 1   
    10     6     7 ar  
    11     7     8 1   
    12     7     9 ar  
    13     9    10 ar  
    14    10    11 1   
    15    10    22 ar  
    16    11    12 1   
    17    12    48 1   
    18    48    13 1   
    19    48    21 2   
    20    13    14 1   
    21    14    15 1   
    22    16    17 1   
    23    17    18 1   
    24    17    19 2   
    25    17    20 2   
    26    22    23 1   
    27    23    24 1   
    28     1    25 1   
    29     2    26 1   
    30     2    27 1   
    31     2    28 1   
    32     3    29 1   
    33     3    30 1   
    34     4    31 1   
    35     4    32 1   
    36     5    33 1   
    37     9    34 1   
    38    11    35 1   
    39    12    36 1   
    40    12    37 1   
    41    14    38 1   
    42    14    39 1   
    43    15    40 1   
    44    15    41 1   
    45    16    42 1   
    46    18    43 1   
    47    18    44 1   
    48    24    45 1   
    49    24    46 1   
    50    24    47 1   
@<TRIPOS>SUBSTRUCTURE
     1 21F         1 TEMP              0 ****  ****    0 ROOT
