@<TRIPOS>MOLECULE
21G
   47    51     1     0     0
SMALL
bcc


@<TRIPOS>ATOM
      1 C1           0.0000     0.0000     0.0000 ca         1 21G      -0.044000
      2 C2           1.3850     0.0000     0.0000 ca         1 21G      -0.073400
      3 C3           2.0650     0.0000     1.2100 ca         1 21G       0.361200
      4 C5           0.0980     0.0040     2.4180 ca         1 21G       0.192800
      5 C6          -0.6550     0.0040     1.2320 ca         1 21G      -0.152100
      6 C7          -2.0680     0.0110     1.6430 cc         1 21G      -0.240000
      7 N4           1.4230    -0.0020     2.3590 nb         1 21G      -0.564000
      8 C8          -2.0740     0.0140     3.0000 cd         1 21G      -0.165100
      9 N9          -0.7950     0.0100     3.4670 na         1 21G       0.259900
     10 C11         -3.2490     0.0150     0.7530 ca         1 21G       0.752800
     11 N12         -3.0680     0.0050    -0.5610 nb         1 21G      -0.698000
     12 C13         -4.1010     0.0080    -1.3910 ca         1 21G       0.445200
     13 C14         -5.3840     0.0190    -0.8740 ca         1 21G      -0.272700
     14 C15         -5.5430     0.0290     0.5160 ca         1 21G       0.532200
     15 N16         -4.4640     0.0200     1.2890 nb         1 21G      -0.579000
     16 N17         -6.8110     0.0410     1.0790 nu         1 21G      -0.493900
     17 C18         -6.9660     0.0500     2.5350 c3         1 21G       0.154500
     18 C20         -6.9050    -1.3840     3.0640 c3         1 21G      -0.161700
     19 C22         -8.2130    -1.7190     3.7820 c3         1 21G      -0.009700
     20 C23         -8.4160    -0.7520     4.9510 c3         1 21G      -0.044900
     21 C24         -8.4770     0.6820     4.4220 c3         1 21G      -0.015400
     22 C25         -8.3160     0.6720     2.9010 c3         1 21G      -0.050700
     23 C26         -9.4430    -0.1510     2.2730 c3         1 21G      -0.015400
     24 C27         -9.3820    -1.5850     2.8020 c3         1 21G      -0.044900
     25 C28         -5.7550    -1.5160     4.0300 c          1 21G       0.995600
     26 O29         -4.5020    -1.2680     3.6170 o          1 21G      -0.891800
     27 O30         -5.9610    -1.8420     5.1730 o          1 21G      -0.891800
     28 F31         -6.4590     0.0220    -1.6930 f          1 21G      -0.134900
     29 F32          2.0670     0.0010    -1.1660 f          1 21G      -0.137900
     30 H1          -0.5580     0.0000    -0.9290 ha         1 21G       0.141000
     31 H2           3.1480     0.0000     1.2090 h4         1 21G      -0.022900
     32 H3          -2.9630     0.0200     3.6190 h4         1 21G       0.233000
     33 H4          -0.5390     0.0110     4.4340 hn         1 21G       0.118700
     34 H5          -3.9430    -0.0000    -2.4630 h4         1 21G      -0.023900
     35 H6          -7.6190     0.0880     0.4900 hn         1 21G       0.293800
     36 H7          -6.1680     0.6330     2.9790 h1         1 21G       0.077700
     37 H8          -6.7620    -2.0680     2.2360 hc         1 21G       0.035700
     38 H9          -8.1700    -2.7340     4.1570 hc         1 21G       0.034700
     39 H10         -9.3430    -0.9890     5.4590 hc         1 21G       0.020950
     40 H11         -7.5900    -0.8460     5.6450 hc         1 21G       0.020950
     41 H12         -9.4330     1.1220     4.6810 hc         1 21G       0.001950
     42 H13         -7.6790     1.2650     4.8660 hc         1 21G       0.001950
     43 H14         -8.3590     1.6870     2.5270 hc         1 21G       0.008700
     44 H15        -10.3980     0.2890     2.5320 hc         1 21G       0.001950
     45 H16         -9.3280    -0.1590     1.1960 hc         1 21G       0.001950
     46 H17        -10.3090    -1.8220     3.3110 hc         1 21G       0.020950
     47 H18         -9.2390    -2.2700     1.9750 hc         1 21G       0.020950
@<TRIPOS>BOND
     1     1     2 ar  
     2     1     5 ar  
     3     1    30 1   
     4     2     3 ar  
     5     2    29 1   
     6     3     7 ar  
     7     3    31 1   
     8     4     5 ar  
     9     4     7 ar  
    10     4     9 1   
    11     5     6 1   
    12     6     8 2   
    13     6    10 1   
    14     8     9 1   
    15     8    32 1   
    16     9    33 1   
    17    10    11 ar  
    18    10    15 ar  
    19    11    12 ar  
    20    12    13 ar  
    21    12    34 1   
    22    13    14 ar  
    23    13    28 1   
    24    14    15 ar  
    25    14    16 1   
    26    16    17 1   
    27    16    35 1   
    28    17    18 1   
    29    17    22 1   
    30    17    36 1   
    31    18    19 1   
    32    18    25 1   
    33    18    37 1   
    34    19    20 1   
    35    19    24 1   
    36    19    38 1   
    37    20    21 1   
    38    20    39 1   
    39    20    40 1   
    40    21    22 1   
    41    21    41 1   
    42    21    42 1   
    43    22    23 1   
    44    22    43 1   
    45    23    24 1   
    46    23    44 1   
    47    23    45 1   
    48    24    46 1   
    49    24    47 1   
    50    25    26 1   
    51    25    27 1   
@<TRIPOS>SUBSTRUCTURE
     1 21G         1 TEMP              0 ****  ****    0 ROOT
