@<TRIPOS>MOLECULE
molecule
   11    10     1     0     0
SMALL
bcc


@<TRIPOS>ATOM
      1 C1           0.0000     0.0000     0.0000 c3         1 21H       0.340200
      2 O1           1.4290     0.0000     0.0000 os         1 21H      -0.404600
      3 O2          -0.4760     0.0000     1.3480 oh         1 21H      -0.641800
      4 C6           2.0100    -1.2620     0.3370 c3         1 21H       0.340200
      5 O7           1.8850    -2.1550    -0.7720 oh         1 21H      -0.641800
      6 H1          -0.3610    -0.8850    -0.5110 h2         1 21H       0.043950
      7 H2          -0.3610     0.8850    -0.5100 h2         1 21H       0.043950
      8 H3          -1.3110     0.4360     1.3860 ho         1 21H       0.416000
      9 H4           3.0580    -1.1260     0.5750 h2         1 21H       0.043950
     10 H5           1.4960    -1.6780     1.1960 h2         1 21H       0.043950
     11 H6           2.6000    -2.7690    -0.7630 ho         1 21H       0.416000
@<TRIPOS>BOND
     1     5     4 1   
     2     4     2 1   
     3     2     1 1   
     4     1     3 1   
     5     1     6 1   
     6     1     7 1   
     7     3     8 1   
     8     4     9 1   
     9     4    10 1   
    10     5    11 1   
@<TRIPOS>SUBSTRUCTURE
     1 21H         1 TEMP              0 ****  ****    0 ROOT
