@<TRIPOS>MOLECULE
21H
   11    10     1     0     0
SMALL
bcc


@<TRIPOS>ATOM
      1 C1         -0.0710   -0.1930   -0.1460 c3        1 21H      0.321200
      2 O1          1.3270   -0.1600    0.0610 os        1 21H     -0.496600
      3 O2         -0.6490   -0.1050    1.1290 oh        1 21H     -0.624800
      4 C6          1.8860   -1.3600    0.5610 c3        1 21H      0.321200
      5 O7          1.9180   -2.2470   -0.5230 oh        1 21H     -0.624800
      6 H1         -0.4240   -1.1610   -0.5900 h2        1 21H      0.069200
      7 H2         -0.2960    0.6970   -0.7920 h2        1 21H      0.069200
      8 H3         -0.3290    0.7050    1.5460 ho        1 21H      0.413000
      9 H4          1.2500   -1.8410    1.3490 h2        1 21H      0.069200
     10 H5          2.9090   -1.0790    0.9290 h2        1 21H      0.069200
     11 H6          2.4310   -1.8360   -1.2300 ho        1 21H      0.413000
@<TRIPOS>BOND
     1    1    2 1   
     2    1    3 1   
     3    1    6 1   
     4    1    7 1   
     5    2    4 1   
     6    3    8 1   
     7    4    5 1   
     8    4    9 1   
     9    4   10 1   
    10    5   11 1   
@<TRIPOS>SUBSTRUCTURE
     1 21H         1 TEMP              0 ****  ****    0 ROOT
