@<TRIPOS>MOLECULE
21J
   53    55     1     0     0
SMALL
bcc


@<TRIPOS>ATOM
      1 C13          0.0000     0.0000     0.0000 ca         1 21J       0.069100
      2 C15          0.6950    -0.4130     2.0820 c3         1 21J       0.352600
      3 C17          0.6950     0.2980     3.4360 c3         1 21J      -0.022100
      4 C21          0.0000     0.0120    -2.4010 ca         1 21J      -0.091000
      5 C22          1.3830     0.0120    -2.4040 ca         1 21J      -0.061600
      6 C26          6.4770     4.2790    -0.0140 c3         1 21J      -0.066400
      7 C28         10.8080     7.9390    -0.7620 c3         1 21J       0.038900
      8 O01         10.2860     6.3960     2.0130 o          1 21J      -0.581300
      9 N03          8.5970     4.9760     0.9860 n7         1 21J      -0.592100
     10 C04          8.0020     4.2150    -0.1160 c3         1 21J       0.209500
     11 C05          8.4600     2.7570    -0.0340 c3         1 21J      -0.066400
     12 C06          7.8630     1.9720    -1.2060 c3         1 21J       0.055500
     13 N07          6.4050     2.1480    -1.2000 n          1 21J      -0.166800
     14 C08          5.5840     1.0790    -1.2080 c          1 21J       0.581100
     15 C09          4.0890     1.2760    -1.2000 c3         1 21J       0.138400
     16 O10          3.4420     0.0020    -1.2100 os         1 21J      -0.279900
     17 C11          2.0820     0.0020    -1.2060 ca         1 21J       0.125100
     18 C12          1.3900     0.0000     0.0000 ca         1 21J       0.053100
     19 O14         -0.4370    -0.0010     1.2940 os         1 21J      -0.290900
     20 C16          0.6920    -1.9310     2.2720 c3         1 21J      -0.022100
     21 O18          1.8270     0.0000     1.2940 os         1 21J      -0.286900
     22 C19         -0.6910     0.0070    -1.2030 ca         1 21J      -0.029600
     23 Cl1         -2.4280     0.0060    -1.2060 cl         1 21J       0.000600
     24 Cl2          2.2470     0.0190    -3.9100 cl         1 21J       0.011600
     25 O24          6.0480    -0.0420    -1.2180 o          1 21J      -0.611100
     26 C25          5.8580     3.5110    -1.1870 c3         1 21J       0.055500
     27 C27          9.5660     7.0990    -0.4580 c3         1 21J      -0.013600
     28 O29         10.8850     4.8650     0.1640 o          1 21J      -0.581300
     29 H171         0.6830     1.3700     3.2810 hc         1 21J       0.024533
     30 H172        -0.1840     0.0050     3.9980 hc         1 21J       0.024533
     31 H173         1.5850     0.0220     3.9890 hc         1 21J       0.024533
     32 H211        -0.5430     0.0200    -3.3390 ha         1 21J       0.132000
     33 H261         6.1560     5.3130    -0.0510 hc         1 21J       0.035450
     34 H262         6.1590     3.8290     0.9190 hc         1 21J       0.035450
     35 H282        11.5860     7.3010    -1.1650 hc         1 21J       0.014033
     36 H283        11.1610     8.4060     0.1500 hc         1 21J       0.014033
     37 H1          10.5580     8.7050    -1.4860 hc         1 21J       0.014033
     38 H031         8.1650     4.9720     1.8880 hn         1 21J       0.354800
     39 H041         8.3160     4.6370    -1.0630 h1         1 21J       0.025700
     40 H051         9.5410     2.7150    -0.0850 hc         1 21J       0.035450
     41 H052         8.1200     2.3250     0.9000 hc         1 21J       0.035450
     42 H061         8.1020     0.9210    -1.0970 h1         1 21J       0.030700
     43 H062         8.2700     2.3470    -2.1380 h1         1 21J       0.030700
     44 H091         3.8010     1.8210    -0.3100 h1         1 21J       0.011700
     45 H092         3.7950     1.8370    -2.0790 h1         1 21J       0.011700
     46 H161        -0.2080    -2.2280     2.7960 hc         1 21J       0.024533
     47 H162         0.7230    -2.4170     1.3040 hc         1 21J       0.024533
     48 H163         1.5600    -2.2240     2.8510 hc         1 21J       0.024533
     49 H251         6.1050     4.0100    -2.1160 h1         1 21J       0.030700
     50 H252         4.7820     3.4690    -1.0650 h1         1 21J       0.030700
     51 H271         9.2130     6.6340    -1.3700 h1         1 21J       0.063700
     52 H272         8.7890     7.7370    -0.0540 h1         1 21J       0.063700
     53 S02         10.0040     5.8160     0.7470 s6         1 21J       0.954900
@<TRIPOS>BOND
     1     1    18 ar  
     2     1    19 1   
     3     1    22 ar  
     4     2     3 1   
     5     2    19 1   
     6     2    20 1   
     7     2    21 1   
     8     3    29 1   
     9     3    30 1   
    10     3    31 1   
    11     4     5 ar  
    12     4    22 ar  
    13     4    32 1   
    14     5    17 ar  
    15     5    24 1   
    16     6    10 1   
    17     6    26 1   
    18     6    33 1   
    19     6    34 1   
    20     7    27 1   
    21     7    35 1   
    22     7    36 1   
    23     7    37 1   
    24     8    53 2   
    25     9    10 1   
    26     9    38 1   
    27     9    53 1   
    28    10    11 1   
    29    10    39 1   
    30    11    12 1   
    31    11    40 1   
    32    11    41 1   
    33    12    13 1   
    34    12    42 1   
    35    12    43 1   
    36    13    14 1   
    37    13    26 1   
    38    14    15 1   
    39    14    25 2   
    40    15    16 1   
    41    15    44 1   
    42    15    45 1   
    43    16    17 1   
    44    17    18 ar  
    45    18    21 1   
    46    20    46 1   
    47    20    47 1   
    48    20    48 1   
    49    22    23 1   
    50    26    49 1   
    51    26    50 1   
    52    27    51 1   
    53    27    52 1   
    54    27    53 1   
    55    28    53 2   
@<TRIPOS>SUBSTRUCTURE
     1 21J         1 TEMP              0 ****  ****    0 ROOT
