@<TRIPOS>MOLECULE
21K
   45    46     1     0     0
SMALL
bcc


@<TRIPOS>ATOM
      1 C13          0.0000     0.0000     0.0000 ca         1 21K      -0.042000
      2 C17          1.3760     0.0020     2.4040 ca         1 21K      -0.110600
      3 C20          8.0130     0.0000    -0.5500 c3         1 21K       0.052500
      4 C21          8.6480     1.1660    -1.3130 c3         1 21K      -0.065900
      5 C22          7.9240     1.5960    -6.0310 c3         1 21K      -0.018600
      6 O01         10.0020     3.1690    -5.4580 o          1 21K      -0.579300
      7 N03          8.9030     2.1650    -3.5320 n7         1 21K      -0.589100
      8 C04          8.2720     1.0690    -2.7930 c3         1 21K       0.196500
      9 C05          6.7520     1.1640    -2.9410 c3         1 21K      -0.065900
     10 C06          6.0960    -0.0030    -2.1970 c3         1 21K       0.052500
     11 N07          6.5660    -0.0010    -0.8060 n          1 21K      -0.149800
     12 C08          5.6890     0.0000     0.2160 c          1 21K       0.584100
     13 C09          4.2070    -0.0010    -0.0610 c3         1 21K       0.091800
     14 N10          3.4730     0.0010     1.2060 nu         1 21K      -0.415600
     15 C11          2.0740     0.0000     1.2030 ca         1 21K       0.075600
     16 C12          1.3820     0.0000     0.0000 ca         1 21K      -0.189000
     17 C14         -0.6940     0.0010     1.1970 ca         1 21K      -0.088600
     18 Cl1         -2.4300     0.0010     1.1920 cl         1 21K      -0.030400
     19 C16         -0.0070     0.0020     2.3980 ca         1 21K      -0.042000
     20 Cl2          2.2380     0.0030     3.9110 cl         1 21K      -0.011400
     21 O19          6.0910     0.0020     1.3610 o          1 21K      -0.642100
     22 C23          8.2860     1.3520    -7.4980 c3         1 21K       0.040900
     23 O24         10.2330     0.7480    -4.9970 o          1 21K      -0.579300
     24 H131        -0.5410    -0.0000    -0.9390 ha         1 21K       0.110000
     25 H201         8.4430    -0.9330    -0.8930 h1         1 21K       0.033950
     26 H202         8.1940     0.1210     0.5110 h1         1 21K       0.033950
     27 H211         8.2830     2.1030    -0.9090 hc         1 21K       0.030450
     28 H212         9.7260     1.1190    -1.2110 hc         1 21K       0.030450
     29 H221         7.4380     0.7150    -5.6280 h1         1 21K       0.065200
     30 H222         7.2520     2.4430    -5.9610 h1         1 21K       0.065200
     31 H031         9.0500     3.0490    -3.0860 hn         1 21K       0.356800
     32 H041         8.6120     0.1190    -3.1880 h1         1 21K       0.049700
     33 H051         6.4880     1.1150    -3.9910 hc         1 21K       0.030450
     34 H052         6.4060     2.1000    -2.5200 hc         1 21K       0.030450
     35 H061         5.0190     0.1160    -2.2150 h1         1 21K       0.033950
     36 H062         6.3720    -0.9360    -2.6720 h1         1 21K       0.033950
     37 H091         3.9460     0.8820    -0.6320 h1         1 21K       0.028700
     38 H092         3.9470    -0.8870    -0.6280 h1         1 21K       0.028700
     39 H101         3.9710     0.0020     2.0730 hn         1 21K       0.333800
     40 H121         1.9240    -0.0010    -0.9380 ha         1 21K       0.113000
     41 H161        -0.5520     0.0030     3.3340 ha         1 21K       0.122000
     42 H231         8.7630     2.2360    -7.9040 hc         1 21K       0.013700
     43 H232         8.9650     0.5110    -7.5670 hc         1 21K       0.013700
     44 H2           7.3860     1.1370    -8.0610 hc         1 21K       0.013700
     45 S02          9.4350     1.9200    -5.0810 s6         1 21K       0.952900
@<TRIPOS>BOND
     1     1    16 ar  
     2     1    17 ar  
     3     1    24 1   
     4     2    15 ar  
     5     2    19 ar  
     6     2    20 1   
     7     3     4 1   
     8     3    11 1   
     9     3    25 1   
    10     3    26 1   
    11     4     8 1   
    12     4    27 1   
    13     4    28 1   
    14     5    22 1   
    15     5    29 1   
    16     5    30 1   
    17     5    45 1   
    18     6    45 2   
    19     7     8 1   
    20     7    31 1   
    21     7    45 1   
    22     8     9 1   
    23     8    32 1   
    24     9    10 1   
    25     9    33 1   
    26     9    34 1   
    27    10    11 1   
    28    10    35 1   
    29    10    36 1   
    30    11    12 1   
    31    12    13 1   
    32    12    21 2   
    33    13    14 1   
    34    13    37 1   
    35    13    38 1   
    36    14    15 1   
    37    14    39 1   
    38    15    16 ar  
    39    16    40 1   
    40    17    18 1   
    41    17    19 ar  
    42    19    41 1   
    43    22    42 1   
    44    22    43 1   
    45    22    44 1   
    46    23    45 2   
@<TRIPOS>SUBSTRUCTURE
     1 21K         1 TEMP              0 ****  ****    0 ROOT
