@<TRIPOS>MOLECULE
molecule
   71    75     1     0     0
SMALL
bcc


@<TRIPOS>ATOM
      1 C1           0.0000     0.0000     0.0000 ca         1 21L      -0.125000
      2 C2           1.3940     0.0000     0.0000 ca         1 21L      -0.124000
      3 C3          -0.7010    -0.0010     1.1670 ca         1 21L      -0.114000
      4 C4           2.0950     0.0000     1.1680 ca         1 21L      -0.121000
      5 C5          -0.7010    -0.0010     3.6160 ca         1 21L      -0.103000
      6 C6           1.3930    -0.0010     4.7830 ca         1 21L      -0.100000
      7 C7           6.5900     5.1180     4.0160 ca         1 21L      -0.320000
      8 C8          -0.0120    -0.0010     2.3910 ca         1 21L      -0.036000
      9 C9           1.4050    -0.0010     2.3920 ca         1 21L      -0.027000
     10 C10          5.9100     2.9690     3.1500 ca         1 21L      -0.193600
     11 C11          6.6210     4.7140     1.6480 ca         1 21L      -0.215300
     12 C12         -0.0010    -0.0010     4.7830 ca         1 21L      -0.092300
     13 C13          2.0940    -0.0010     3.6170 ca         1 21L      -0.104300
     14 C14          6.1640     3.4110     1.8430 ca         1 21L       0.185100
     15 C15          6.1280     3.8330     4.2340 ca         1 21L       0.230100
     16 C16          6.8330     5.5570     2.7190 ca         1 21L       0.238100
     17 C17          5.0240     3.9220    -1.3470 ce         1 21L      -0.242000
     18 C18          5.4590     6.3450    -1.3590 cf         1 21L      -0.368400
     19 C19          4.8910     5.1920    -1.9280 ce         1 21L       0.283100
     20 C20          5.8330     3.7150    -0.3040 c2         1 21L       0.168900
     21 C21          6.3820     6.2360    -0.2850 c          1 21L       0.609300
     22 C22          5.4170     1.6030     3.3830 c          1 21L       0.688700
     23 C23          5.1110     7.6190    -1.8590 c          1 21L       0.586300
     24 C24         -1.7370    -1.4450     7.8500 c          1 21L       0.628100
     25 C25          6.7600     4.8440     0.1510 c3         1 21L      -0.124500
     26 C26          5.6970     8.8590    -1.2340 c3         1 21L      -0.177100
     27 C27          8.2000     4.5350    -0.2620 c3         1 21L      -0.062100
     28 C28          6.1310     4.3360     6.5560 c3         1 21L       0.127700
     29 C29         -2.7810    -2.5310     9.6950 c3         1 21L       0.138700
     30 C30         -0.7440    -0.0020     6.0950 c3         1 21L      -0.026100
     31 C31          3.6000    -0.0010     3.6390 c3         1 21L       0.161300
     32 C32         -0.9940    -1.4440     6.5390 c3         1 21L      -0.123400
     33 N33          4.0930     1.3600     3.4070 ns         1 21L      -0.574900
     34 O34          6.8450     7.2200     0.2580 o          1 21L      -0.499100
     35 O35          6.2060     0.6930     3.5550 o          1 21L      -0.591100
     36 O36          4.3390     7.7160    -2.7910 o          1 21L      -0.540100
     37 O37         -2.0340    -0.3990     8.3760 o          1 21L      -0.552000
     38 O38          6.0500     2.7760     0.6370 os         1 21L      -0.190200
     39 O39          7.2830     6.8200     2.5060 oh         1 21L      -0.464100
     40 O40          4.1920     5.3120    -3.0750 oh         1 21L      -0.445100
     41 O41          5.8870     3.4050     5.4990 os         1 21L      -0.309900
     42 O42         -2.0670    -2.6070     8.4330 os         1 21L      -0.429900
     43 H1          -0.5340     0.0000    -0.9430 ha         1 21L       0.130000
     44 H2           1.9270     0.0010    -0.9430 ha         1 21L       0.129000
     45 H3          -1.7840    -0.0010     1.1520 ha         1 21L       0.135000
     46 H4           3.1780    -0.0000     1.1530 ha         1 21L       0.144000
     47 H5          -1.7840    -0.0010     3.6320 ha         1 21L       0.137000
     48 H6           1.9260    -0.0020     5.7260 ha         1 21L       0.137000
     49 H7           6.7570     5.7840     4.8540 ha         1 21L       0.152000
     50 H17          4.5610     3.0700    -1.8310 ha         1 21L       0.154000
     51 H26          5.3690     9.7310    -1.7870 hc         1 21L       0.062033
     52 H26A         6.7780     8.8010    -1.2610 hc         1 21L       0.062033
     53 H26B         5.3650     8.9380    -0.2060 hc         1 21L       0.062033
     54 H27          8.5210     3.6140     0.2100 hc         1 21L       0.055700
     55 H27A         8.8470     5.3450     0.0490 hc         1 21L       0.055700
     56 H27B         8.2510     4.4250    -1.3390 hc         1 21L       0.055700
     57 H28          5.5050     5.2090     6.4190 h1         1 21L       0.048033
     58 H28A         7.1730     4.6330     6.5420 h1         1 21L       0.048033
     59 H28B         5.9000     3.8710     7.5070 h1         1 21L       0.048033
     60 H29         -3.7160    -2.0020     9.5500 h1         1 21L       0.049700
     61 H29A        -2.1760    -2.0030    10.4220 h1         1 21L       0.049700
     62 H29B        -2.9860    -3.5330    10.0550 h1         1 21L       0.049700
     63 H30         -1.6910     0.5080     5.9730 hc         1 21L       0.066200
     64 H30A        -0.1520     0.5090     6.8450 hc         1 21L       0.066200
     65 H31          3.9720    -0.6570     2.8610 h1         1 21L       0.061700
     66 H31A         3.9480    -0.3510     4.6030 h1         1 21L       0.061700
     67 H32         -0.0460    -1.9550     6.6600 hc         1 21L       0.076200
     68 H32A        -1.5860    -1.9550     5.7890 hc         1 21L       0.076200
     69 HN33         3.4440     2.1120     3.2830 hn         1 21L       0.322500
     70 HO39         7.9270     7.0390     3.1590 ho         1 21L       0.422000
     71 HO40         3.4210     4.7710    -3.0310 ho         1 21L       0.431000
@<TRIPOS>BOND
     1     1     2 ar  
     2     1     3 ar  
     3     2     4 ar  
     4     3     8 ar  
     5     4     9 ar  
     6     5     8 ar  
     7     5    12 ar  
     8     6    12 ar  
     9     6    13 ar  
    10     7    15 ar  
    11     7    16 ar  
    12     8     9 ar  
    13     9    13 ar  
    14    10    14 ar  
    15    10    15 ar  
    16    10    22 1   
    17    11    14 ar  
    18    11    16 ar  
    19    11    25 1   
    20    12    30 1   
    21    13    31 1   
    22    14    38 1   
    23    15    41 1   
    24    16    39 1   
    25    17    19 1   
    26    17    20 2   
    27    18    19 2   
    28    18    21 1   
    29    18    23 1   
    30    19    40 1   
    31    20    25 1   
    32    20    38 1   
    33    21    25 1   
    34    21    34 2   
    35    22    33 1   
    36    22    35 2   
    37    23    26 1   
    38    23    36 2   
    39    24    32 1   
    40    24    37 2   
    41    24    42 1   
    42    25    27 1   
    43    28    41 1   
    44    29    42 1   
    45    30    32 1   
    46    31    33 1   
    47     1    43 1   
    48     2    44 1   
    49     3    45 1   
    50     4    46 1   
    51     5    47 1   
    52     6    48 1   
    53     7    49 1   
    54    17    50 1   
    55    26    51 1   
    56    26    52 1   
    57    26    53 1   
    58    27    54 1   
    59    27    55 1   
    60    27    56 1   
    61    28    57 1   
    62    28    58 1   
    63    28    59 1   
    64    29    60 1   
    65    29    61 1   
    66    29    62 1   
    67    30    63 1   
    68    30    64 1   
    69    31    65 1   
    70    31    66 1   
    71    32    67 1   
    72    32    68 1   
    73    33    69 1   
    74    39    70 1   
    75    40    71 1   
@<TRIPOS>SUBSTRUCTURE
     1 21L         1 TEMP              0 ****  ****    0 ROOT
