@<TRIPOS>MOLECULE
molecule
   44    45     1     0     0
SMALL
bcc


@<TRIPOS>ATOM
      1 Cl1          0.0000     0.0000     0.0000 cl         1 21M      -0.098400
      2 Cl2          4.6750    -0.0010    -2.7060 cl         1 21M      -0.070400
      3 C02          1.7360     0.0000     0.0000 ca         1 21M      -0.002600
      4 C03          2.4270     0.0000     1.1980 ca         1 21M      -0.082000
      5 C04          3.8090     0.0000     1.2000 ca         1 21M      -0.212000
      6 C05          4.5030    -0.0000     0.0010 ca         1 21M       0.148100
      7 O06          5.8630    -0.0010     0.0010 os         1 21M      -0.280900
      8 C07          6.5120    -0.0010     1.2750 c3         1 21M       0.063400
      9 C08          8.0060    -0.0010     1.0780 c          1 21M       0.663100
     10 N09          8.8260    -0.0010     2.1470 n          1 21M      -0.497800
     11 C10          8.2790    -0.0070     3.5110 c3         1 21M       0.107500
     12 C11          8.8900     1.1600     4.2920 c3         1 21M      -0.115400
     13 C12         10.4160     1.0700     4.2260 c3         1 21M       0.241500
     14 N13         11.0050     2.1650     5.0000 n7         1 21M      -0.911100
     15 S14         12.4130     1.9260     5.8370 s6         1 21M       1.327900
     16 C15         13.6550     1.6100     4.5530 c3         1 21M      -0.229600
     17 C16         15.0170     1.3700     5.2080 c3         1 21M      -0.072100
     18 O17         12.6590     3.1720     6.4730 o          1 21M      -0.627300
     19 O18         12.1730     0.7500     6.5980 o          1 21M      -0.627300
     20 C19         10.8730     1.1720     2.7690 c3         1 21M      -0.115400
     21 C20         10.2850    -0.0010     1.9710 c3         1 21M       0.107500
     22 O21          8.4690    -0.0010    -0.0430 o          1 21M      -0.567100
     23 C22          3.8090    -0.0010    -1.2010 ca         1 21M       0.007400
     24 C24          2.4260    -0.0070    -1.1990 ca         1 21M      -0.081000
     25 H031         1.8850     0.0000     2.1360 ha         1 21M       0.148000
     26 H041         4.3490     0.0000     2.1390 ha         1 21M       0.140000
     27 H072         6.2200     0.8840     1.8280 h1         1 21M       0.055200
     28 H071         6.2200    -0.8850     1.8290 h1         1 21M       0.055200
     29 H101         7.2030     0.1090     3.4700 h1         1 21M       0.060950
     30 H102         8.5310    -0.9400     3.9980 h1         1 21M       0.060950
     31 H111         8.5700     1.1090     5.3250 hc         1 21M       0.059700
     32 H112         8.5650     2.0960     3.8540 hc         1 21M       0.059700
     33 H121        10.7370     0.1200     4.6370 h1         1 21M       0.073700
     34 H131        10.5460     3.0540     5.0370 hn         1 21M       0.457800
     35 H151        13.7170     2.4660     3.8920 h1         1 21M       0.096200
     36 H152        13.3690     0.7340     3.9820 h1         1 21M       0.096200
     37 H162        14.9540     0.5130     5.8670 hc         1 21M       0.051700
     38 H161        15.3020     2.2450     5.7790 hc         1 21M       0.051700
     39 H1          15.7580     1.1820     4.4410 hc         1 21M       0.051700
     40 H192        10.5250     2.1070     2.3460 hc         1 21M       0.059700
     41 H191        11.9550     1.1310     2.7260 hc         1 21M       0.059700
     42 H202        10.6960    -0.9330     2.3390 h1         1 21M       0.060950
     43 H201        10.5240     0.1190     0.9210 h1         1 21M       0.060950
     44 H241         1.8840    -0.0150    -2.1370 ha         1 21M       0.163000
@<TRIPOS>BOND
     1     2    23 1   
     2    24    23 ar  
     3    24     3 ar  
     4    23     6 ar  
     5     1     3 1   
     6     3     4 ar  
     7     6     7 1   
     8     6     5 ar  
     9     7     8 1   
    10     4     5 ar  
    11     8     9 1   
    12    22     9 2   
    13     9    10 1   
    14    10    21 1   
    15    10    11 1   
    16    21    20 1   
    17    11    12 1   
    18    20    13 1   
    19    12    13 1   
    20    13    14 1   
    21    14    15 1   
    22    15    18 2   
    23    15    16 1   
    24    15    19 2   
    25    17    16 1   
    26     4    25 1   
    27     5    26 1   
    28     8    27 1   
    29     8    28 1   
    30    11    29 1   
    31    11    30 1   
    32    12    31 1   
    33    12    32 1   
    34    13    33 1   
    35    14    34 1   
    36    16    35 1   
    37    16    36 1   
    38    17    37 1   
    39    17    38 1   
    40    17    39 1   
    41    20    40 1   
    42    20    41 1   
    43    21    42 1   
    44    21    43 1   
    45    24    44 1   
@<TRIPOS>SUBSTRUCTURE
     1 21M         1 TEMP              0 ****  ****    0 ROOT
