@<TRIPOS>MOLECULE
21M
   44    45     1     0     0
SMALL
bcc


@<TRIPOS>ATOM
      1 Cl1          0.0000     0.0000     0.0000 cl         1 21M      -0.019400
      2 Cl2          4.6750    -0.0010    -2.7060 cl         1 21M       0.015600
      3 C02          1.7360     0.0000     0.0000 ca         1 21M      -0.067600
      4 C03          2.4270     0.0000     1.1980 ca         1 21M      -0.053000
      5 C04          3.8090     0.0000     1.2000 ca         1 21M      -0.199000
      6 C05          4.5030    -0.0000     0.0010 ca         1 21M       0.150100
      7 O06          5.8630    -0.0010     0.0010 os         1 21M      -0.256900
      8 C07          6.5120    -0.0010     1.2750 c3         1 21M       0.129400
      9 C08          8.0060    -0.0010     1.0780 c          1 21M       0.581100
     10 N09          8.8260    -0.0010     2.1470 n          1 21M      -0.163800
     11 C10          8.2790    -0.0070     3.5110 c3         1 21M       0.056000
     12 C11          8.8900     1.1600     4.2920 c3         1 21M      -0.066400
     13 C12         10.4160     1.0700     4.2260 c3         1 21M       0.197500
     14 N13         11.0050     2.1650     5.0000 n7         1 21M      -0.590100
     15 S14         12.4130     1.9260     5.8370 s6         1 21M       0.954900
     16 C15         13.6550     1.6100     4.5530 c3         1 21M      -0.018600
     17 C16         15.0170     1.3700     5.2080 c3         1 21M       0.041900
     18 O17         12.6590     3.1720     6.4730 o          1 21M      -0.581300
     19 O18         12.1730     0.7500     6.5980 o          1 21M      -0.581300
     20 C19         10.8730     1.1720     2.7690 c3         1 21M      -0.066400
     21 C20         10.2850    -0.0010     1.9710 c3         1 21M       0.056000
     22 O21          8.4690    -0.0010    -0.0430 o          1 21M      -0.612100
     23 C22          3.8090    -0.0010    -1.2010 ca         1 21M      -0.069600
     24 C24          2.4260    -0.0070    -1.1990 ca         1 21M      -0.059000
     25 H031         1.8850     0.0000     2.1360 ha         1 21M       0.114000
     26 H041         4.3490     0.0000     2.1390 ha         1 21M       0.119000
     27 H072         6.2200     0.8840     1.8280 h1         1 21M       0.017700
     28 H071         6.2200    -0.8850     1.8290 h1         1 21M       0.017700
     29 H101         7.2030     0.1090     3.4700 h1         1 21M       0.031700
     30 H102         8.5310    -0.9400     3.9980 h1         1 21M       0.031700
     31 H111         8.5700     1.1090     5.3250 hc         1 21M       0.029700
     32 H112         8.5650     2.0960     3.8540 hc         1 21M       0.029700
     33 H121        10.7370     0.1200     4.6370 h1         1 21M       0.049700
     34 H131        10.5460     3.0540     5.0370 hn         1 21M       0.354800
     35 H151        13.7170     2.4660     3.8920 h1         1 21M       0.067200
     36 H152        13.3690     0.7340     3.9820 h1         1 21M       0.067200
     37 H162        14.9540     0.5130     5.8670 hc         1 21M       0.013367
     38 H161        15.3020     2.2450     5.7790 hc         1 21M       0.013367
     39 H1          15.7580     1.1820     4.4410 hc         1 21M       0.013367
     40 H192        10.5250     2.1070     2.3460 hc         1 21M       0.029700
     41 H191        11.9550     1.1310     2.7260 hc         1 21M       0.029700
     42 H202        10.6960    -0.9330     2.3390 h1         1 21M       0.031700
     43 H201        10.5240     0.1190     0.9210 h1         1 21M       0.031700
     44 H241         1.8840    -0.0150    -2.1370 ha         1 21M       0.127000
@<TRIPOS>BOND
     1     1     3 1   
     2     2    23 1   
     3     3     4 ar  
     4     3    24 ar  
     5     4     5 ar  
     6     4    25 1   
     7     5     6 ar  
     8     5    26 1   
     9     6     7 1   
    10     6    23 ar  
    11     7     8 1   
    12     8     9 1   
    13     8    27 1   
    14     8    28 1   
    15     9    10 1   
    16     9    22 2   
    17    10    11 1   
    18    10    21 1   
    19    11    12 1   
    20    11    29 1   
    21    11    30 1   
    22    12    13 1   
    23    12    31 1   
    24    12    32 1   
    25    13    14 1   
    26    13    20 1   
    27    13    33 1   
    28    14    15 1   
    29    14    34 1   
    30    15    16 1   
    31    15    18 2   
    32    15    19 2   
    33    16    17 1   
    34    16    35 1   
    35    16    36 1   
    36    17    37 1   
    37    17    38 1   
    38    17    39 1   
    39    20    21 1   
    40    20    40 1   
    41    20    41 1   
    42    21    42 1   
    43    21    43 1   
    44    23    24 ar  
    45    24    44 1   
@<TRIPOS>SUBSTRUCTURE
     1 21M         1 TEMP              0 ****  ****    0 ROOT
