@<TRIPOS>MOLECULE
21N
   45    47     1     0     0
SMALL
bcc


@<TRIPOS>ATOM
      1 C1           0.0000     0.0000     0.0000 c3         1 21N       0.026000
      2 F1           0.6180     4.5830    -9.1490 f          1 21N      -0.133000
      3 N1          -0.4880     0.0580    -1.3800 ns         1 21N       0.179000
      4 S1          -2.4750    -1.4980    -0.5500 s          1 21N      -0.371000
      5 C2           1.5310     0.0000     0.0000 c3         1 21N       0.022000
      6 F2           0.8940     2.6760   -10.3770 f          1 21N      -0.133000
      7 N2          -2.0630    -0.5450    -2.9940 ns         1 21N       0.211000
      8 O2           2.0090    -1.1660    -0.6710 oh         1 21N      -0.301000
      9 C3           2.0330     0.0000     1.4480 c3         1 21N       0.039000
     10 F3           2.4630     3.2750    -8.8290 f          1 21N      -0.133000
     11 N3          -1.3600     0.1920    -3.9560 n2         1 21N      -0.072000
     12 O3           3.4600     0.0720     1.4580 oh         1 21N      -0.317000
     13 C4           1.4510     1.2140     2.1790 c3         1 21N       0.025000
     14 O4           1.8550     1.1840     3.5480 oh         1 21N      -0.305000
     15 C5          -0.0770     1.1670     2.0940 c3         1 21N       0.063000
     16 O5          -0.4760     1.1380     0.7220 os         1 21N      -0.243000
     17 C6          -0.6630     2.4070     2.7700 c3         1 21N       0.075000
     18 O6          -2.0890     2.3060     2.7950 oh         1 21N      -0.301000
     19 C7          -1.6150    -0.5980    -1.7240 c2         1 21N      -0.131000
     20 C8          -1.7920     0.2440    -5.1780 c2         1 21N      -0.403000
     21 C9          -1.0520     1.0200    -6.1910 c3         1 21N      -0.110000
     22 C10         -1.5140     1.0770    -7.5080 c2         1 21N      -0.062000
     23 C11         -0.8170     1.8040    -8.4490 c2         1 21N      -0.057000
     24 C12          0.3390     2.4760    -8.0920 c2         1 21N      -0.168000
     25 C13          0.8030     2.4230    -6.7900 c2         1 21N      -0.057000
     26 C14          0.1120     1.7040    -5.8350 c2         1 21N      -0.062000
     27 C15          1.0970     3.2670    -9.1260 c3         1 21N       0.416000
     28 H1          -0.3590    -0.9040     0.4770 h2         1 21N       0.141000
     29 HN1         -0.0020     0.6070    -2.0610 hn         1 21N       0.085000
     30 H2           1.8910     0.8880    -0.5060 h1         1 21N       0.056000
     31 HN2         -2.9090    -1.0180    -3.2450 hn         1 21N       0.127000
     32 HO2          2.7150    -0.9290    -1.2490 ho         1 21N       0.197000
     33 H3           1.7090    -0.9080     1.9420 h1         1 21N       0.074000
     34 HO3          3.8090    -0.6600     1.9390 ho         1 21N       0.204000
     35 H4           1.8100     2.1220     1.7100 h1         1 21N       0.059000
     36 HO4          2.5610     1.7960     3.6810 ho         1 21N       0.198000
     37 H5          -0.4360     0.2740     2.5910 h1         1 21N       0.082000
     38 H6          -0.2890     2.4770     3.7840 h1         1 21N       0.036000
     39 H6A         -0.3740     3.2920     2.2160 h1         1 21N       0.036000
     40 HO6         -2.4430     2.9880     3.3400 ho         1 21N       0.187000
     41 H8          -0.8870    -0.0950    -5.6660 DU         1 21N       0.316000
     42 H10         -2.4190     0.5520    -7.7890 ha         1 21N       0.128000
     43 H11         -1.1740     1.8490    -9.4700 ha         1 21N       0.125000
     44 H13          1.7080     2.9530    -6.5160 ha         1 21N       0.125000
     45 H14          0.4770     1.6640    -4.8160 ha         1 21N       0.128000
@<TRIPOS>BOND
     1     1     3 1   
     2     1     5 1   
     3     1    16 1   
     4     1    28 1   
     5     2    27 1   
     6     3    19 1   
     7     3    29 1   
     8     4    19 1   
     9     5     8 1   
    10     5     9 1   
    11     5    30 1   
    12     6    27 1   
    13     7    11 1   
    14     7    19 1   
    15     7    31 1   
    16     8    32 1   
    17     9    12 1   
    18     9    13 1   
    19     9    33 1   
    20    10    27 1   
    21    11    20 1   
    22    12    34 1   
    23    13    14 1   
    24    13    15 1   
    25    13    35 1   
    26    14    36 1   
    27    15    16 1   
    28    15    17 1   
    29    15    37 1   
    30    17    18 1   
    31    17    38 1   
    32    17    39 1   
    33    18    40 1   
    34    20    21 1   
    35    20    41 1   
    36    21    22 1   
    37    21    26 1   
    38    21    41 1   
    39    22    23 1   
    40    22    42 1   
    41    23    24 1   
    42    23    43 1   
    43    24    25 1   
    44    24    27 1   
    45    25    26 1   
    46    25    44 1   
    47    26    45 1   
@<TRIPOS>SUBSTRUCTURE
     1 21N         1 TEMP              0 ****  ****    0 ROOT
