@<TRIPOS>MOLECULE
molecule
   45    46     1     0     0
SMALL
bcc


@<TRIPOS>ATOM
      1 C1           0.0000     0.0000     0.0000 c3         1 21N       0.308500
      2 F1           0.6180     4.5830    -9.1490 f          1 21N      -0.220967
      3 N1          -0.4880     0.0580    -1.3800 ns         1 21N      -0.484900
      4 S1          -2.4750    -1.4980    -0.5500 s          1 21N      -0.663400
      5 C2           1.5310     0.0000     0.0000 c3         1 21N       0.097100
      6 F2           0.8940     2.6760   -10.3770 f          1 21N      -0.220967
      7 N2          -2.0630    -0.5450    -2.9940 ns         1 21N      -0.293900
      8 O2           2.0090    -1.1660    -0.6710 oh         1 21N      -0.590800
      9 C3           2.0330     0.0000     1.4480 c3         1 21N       0.095100
     10 F3           2.4630     3.2750    -8.8290 f          1 21N      -0.220967
     11 N3          -1.3600     0.1920    -3.9560 n2         1 21N      -0.485300
     12 O3           3.4600     0.0720     1.4580 oh         1 21N      -0.593800
     13 C4           1.4510     1.2140     2.1790 c3         1 21N       0.100100
     14 O4           1.8550     1.1840     3.5480 oh         1 21N      -0.588800
     15 C5          -0.0770     1.1670     2.0940 c3         1 21N       0.134100
     16 O5          -0.4760     1.1380     0.7220 os         1 21N      -0.410600
     17 C6          -0.6630     2.4070     2.7700 c3         1 21N       0.155400
     18 O6          -2.0890     2.3060     2.7950 oh         1 21N      -0.595800
     19 C7          -1.6150    -0.5980    -1.7240 cs         1 21N       0.648400
     20 C8          -1.7920     0.2440    -5.1780 ce         1 21N       0.418800
     21 C9          -1.0520     1.0200    -6.1910 ca         1 21N      -0.108900
     22 C10         -1.5140     1.0770    -7.5080 ca         1 21N      -0.103500
     23 C11         -0.8170     1.8040    -8.4490 ca         1 21N      -0.084500
     24 C12          0.3390     2.4760    -8.0920 ca         1 21N      -0.165300
     25 C13          0.8030     2.4230    -6.7900 ca         1 21N      -0.084500
     26 C14          0.1120     1.7040    -5.8350 ca         1 21N      -0.103500
     27 C15          1.0970     3.2670    -9.1260 c3         1 21N       0.673200
     28 H1          -0.3590    -0.9040     0.4770 h2         1 21N       0.119700
     29 HN1         -0.0080     0.6160    -2.0580 hn         1 21N       0.333500
     30 H2           1.8910     0.8880    -0.5060 h1         1 21N       0.054700
     31 HN2         -2.9000    -1.0300    -3.2490 hn         1 21N       0.353500
     32 HO2          2.7270    -0.9320    -1.2350 ho         1 21N       0.414000
     33 H3           1.7090    -0.9080     1.9420 h1         1 21N       0.054700
     34 HO3          3.8110    -0.6890     1.8890 ho         1 21N       0.413000
     35 H4           1.8100     2.1220     1.7100 h1         1 21N       0.094700
     36 HO4          2.0210     0.2930     3.8080 ho         1 21N       0.403000
     37 H5          -0.4360     0.2740     2.5910 h1         1 21N       0.061700
     38 H6          -0.2890     2.4770     3.7840 h1         1 21N       0.040200
     39 H6A         -0.3740     3.2920     2.2160 h1         1 21N       0.040200
     40 HO6         -2.4420     2.9780     3.3530 ho         1 21N       0.402000
     41 H8          -2.6980    -0.2830    -5.4540 h4         1 21N       0.001800
     42 H10         -2.4190     0.5520    -7.7890 ha         1 21N       0.148000
     43 H11         -1.1740     1.8490    -9.4700 ha         1 21N       0.153000
     44 H13          1.7080     2.9530    -6.5160 ha         1 21N       0.153000
     45 H14          0.4770     1.6640    -4.8160 ha         1 21N       0.148000
@<TRIPOS>BOND
     1     5     1 1
     2     3     1 1
     3    16     1 1
     4     1    28 1
     5     2    27 1
     6     3    19 1
     7     3    29 1
     8    19     4 2
     9     5     9 1
    10     5     8 1
    11     5    30 1
    12     6    27 1
    13    11     7 1
    14     7    19 1
    15     7    31 1
    16     8    32 1
    17    12     9 1
    18    13     9 1
    19     9    33 1
    20    10    27 1
    21    20    11 2
    22    12    34 1
    23    13    14 1
    24    13    15 1
    25    13    35 1
    26    14    36 1
    27    17    15 1
    28    16    15 1
    29    15    37 1
    30    18    17 1
    31    17    38 1
    32    17    39 1
    33    18    40 1
    34    21    20 1
    35    20    41 1
    36    22    21 ar
    37    26    21 ar
    38    23    22 ar
    39    22    42 1
    40    24    23 ar
    41    23    43 1
    42    27    24 1
    43    24    25 ar
    44    25    26 ar
    45    25    44 1
    46    26    45 1
@<TRIPOS>SUBSTRUCTURE
     1 21N         1 TEMP              0 ****  ****    0 ROOT
