@<TRIPOS>MOLECULE
21O
   40    41     1     0     0
SMALL
bcc


@<TRIPOS>ATOM
      1 O43         0.9800   -1.8120   -1.5620 o         1 21O     -0.870800
      2 C41         1.4000   -0.6780   -1.1880 c         1 21O      0.931100
      3 O42         1.4090   -0.3430    0.0390 o         1 21O     -0.870800
      4 CAW         2.0550    0.2390   -2.2400 c3        1 21O     -0.260700
      5 CAR         1.1620    0.7860   -3.3640 c         1 21O      0.931100
      6 OAE         1.7540    1.0640   -4.4730 o         1 21O     -0.870800
      7 OAB        -0.0720    0.9870   -3.2320 o         1 21O     -0.870800
      8 CAX         2.8690    1.3620   -1.5890 c3        1 21O      0.020600
      9 CAV         2.0520    2.5400   -1.1500 ca        1 21O     -0.010300
     10 CAJ         1.5650    2.5810    0.1660 ca        1 21O     -0.110000
     11 CAH         0.8930    3.7090    0.6320 ca        1 21O     -0.158000
     12 CAG         0.6820    4.8020   -0.2090 ca        1 21O     -0.170000
     13 CAI         1.1140    4.7450   -1.5320 ca        1 21O     -0.158000
     14 CAK         1.7870    3.6180   -2.0040 ca        1 21O     -0.110000
     15 CAP         3.9790    1.8420   -2.5350 c3        1 21O     -0.195400
     16 CAS         5.1710    0.9350   -2.5390 c         1 21O      0.598700
     17 OAC         5.9250    0.8270   -1.5580 o         1 21O     -0.578100
     18 CAU         5.5110    0.2180   -3.8020 ca        1 21O     -0.136600
     19 CAO         6.8530   -0.1430   -4.0150 ca        1 21O     -0.093000
     20 CAM         7.2340   -0.7930   -5.1820 ca        1 21O     -0.115500
     21 CAT         6.2660   -1.0980   -6.1450 ca        1 21O     -0.172300
     22 C36         6.6940   -1.8140   -7.4130 c3        1 21O      0.686200
     23 F39         6.8780   -3.1720   -7.2810 f         1 21O     -0.254967
     24 F38         5.8300   -1.7110   -8.4780 f         1 21O     -0.254967
     25 F37         7.8960   -1.3900   -7.9400 f         1 21O     -0.254967
     26 CAL         4.9300   -0.7600   -5.9360 ca        1 21O     -0.115500
     27 CAN         4.5480   -0.0970   -4.7640 ca        1 21O     -0.093000
     28 HAW         2.8040   -0.4380   -2.7510 hc        1 21O      0.022700
     29 HAX         3.3530    0.9220   -0.6660 hc        1 21O      0.069700
     30 HAP1        3.5390    1.9440   -3.5680 hc        1 21O      0.078700
     31 HAP2        4.3410    2.8520   -2.2000 hc        1 21O      0.078700
     32 HAJ         1.6750    1.6740    0.7910 ha        1 21O      0.169500
     33 HAK         2.0650    3.5440   -3.0670 ha        1 21O      0.169500
     34 HAH         0.5140    3.7300    1.6630 ha        1 21O      0.096000
     35 HAG         0.1560    5.6920    0.1630 ha        1 21O      0.087000
     36 HAI         0.9090    5.5820   -2.2140 ha        1 21O      0.096000
     37 HAO         7.5980    0.0870   -3.2370 ha        1 21O      0.206000
     38 HAN         3.4620    0.1750   -4.6150 ha        1 21O      0.206000
     39 HAM         8.2840   -1.0690   -5.3540 ha        1 21O      0.137500
     40 HAL         4.1660   -1.0070   -6.6890 ha        1 21O      0.137500
@<TRIPOS>BOND
     1    1    2 1   
     2    2    3 1   
     3    2    4 1   
     4    4    5 1   
     5    4    8 1   
     6    4   28 1   
     7    5    6 1   
     8    5    7 1   
     9    8    9 1   
    10    8   15 1   
    11    8   29 1   
    12    9   10 ar  
    13    9   14 ar  
    14   10   11 ar  
    15   10   32 1   
    16   11   12 ar  
    17   11   34 1   
    18   12   13 ar  
    19   12   35 1   
    20   13   14 ar  
    21   13   36 1   
    22   14   33 1   
    23   15   16 1   
    24   15   30 1   
    25   15   31 1   
    26   16   17 2   
    27   16   18 1   
    28   18   19 ar  
    29   18   27 ar  
    30   19   20 ar  
    31   19   37 1   
    32   20   21 ar  
    33   20   39 1   
    34   21   22 1   
    35   21   26 ar  
    36   22   23 1   
    37   22   24 1   
    38   22   25 1   
    39   26   27 ar  
    40   26   40 1   
    41   27   38 1   
@<TRIPOS>SUBSTRUCTURE
     1 21O         1 TEMP              0 ****  ****    0 ROOT
