@<TRIPOS>MOLECULE
molecule
   40    41     1     0     0
SMALL
bcc


@<TRIPOS>ATOM
      1 O43          0.0000     0.0000     0.0000 o          1 21O      -0.864050
      2 C41          1.2090     0.0000     0.0000 c          1 21O       0.892100
      3 O42          1.8800     0.0000     1.1620 o          1 21O      -0.864050
      4 CAW          1.9620    -0.0060    -1.3050 c3         1 21O      -0.268700
      5 CAR          0.9850     0.0700    -2.4500 c          1 21O       0.892100
      6 OAE          1.3460    -0.3560    -3.6700 o          1 21O      -0.864050
      7 OAB         -0.1240     0.5160    -2.2690 o          1 21O      -0.864050
      8 CAX          2.9030     1.1990    -1.3560 c3         1 21O       0.024600
      9 CAV          2.1090     2.4650    -1.1640 ca         1 21O      -0.034300
     10 CAJ          2.3880     3.3020    -0.0990 ca         1 21O      -0.090500
     11 CAH          1.6590     4.4620     0.0770 ca         1 21O      -0.156500
     12 CAG          0.6520     4.7880    -0.8120 ca         1 21O      -0.166000
     13 CAI          0.3740     3.9520    -1.8770 ca         1 21O      -0.156500
     14 CAK          1.1050     2.7930    -2.0560 ca         1 21O      -0.090500
     15 CAP          3.6060     1.2390    -2.7140 c3         1 21O      -0.176400
     16 CAS          4.5010     0.0340    -2.8520 c          1 21O       0.584700
     17 OAC          4.6020    -0.7550    -1.9380 o          1 21O      -0.501100
     18 CAU          5.2540    -0.1850    -4.0980 ca         1 21O      -0.094600
     19 CAO          6.0850    -1.3010    -4.2300 ca         1 21O      -0.088000
     20 CAM          6.7870    -1.5000    -5.4010 ca         1 21O      -0.108000
     21 CAT          6.6700    -0.5960    -6.4430 ca         1 21O      -0.190300
     22 C36          7.4400    -0.8210    -7.7190 c3         1 21O       0.669200
     23 F39          6.6690    -1.5830    -8.6020 f          1 21O      -0.236300
     24 F38          7.7380     0.4140    -8.3070 f          1 21O      -0.236300
     25 F37          8.6290    -1.5000    -7.4330 f          1 21O      -0.236300
     26 CAL          5.8490     0.5110    -6.3200 ca         1 21O      -0.108000
     27 CAN          5.1360     0.7210    -5.1580 ca         1 21O      -0.088000
     28 HAW          2.5410    -0.9190    -1.3830 hc         1 21O       0.057700
     29 HAX          3.6420     1.1130    -0.5690 hc         1 21O       0.058700
     30 HAP1         4.2020     2.1410    -2.7850 hc         1 21O       0.069700
     31 HAP2         2.8660     1.2320    -3.5050 hc         1 21O       0.069700
     32 HAJ          3.1770     3.0470     0.5970 ha         1 21O       0.157500
     33 HAK          0.8870     2.1380    -2.8910 ha         1 21O       0.157500
     34 HAH          1.8770     5.1170     0.9110 ha         1 21O       0.095000
     35 HAG          0.0790     5.6970    -0.6730 ha         1 21O       0.083000
     36 HAI         -0.4150     4.2080    -2.5750 ha         1 21O       0.095000
     37 HAO          6.1770    -2.0090    -3.4150 ha         1 21O       0.159500
     38 HAN          4.4940     1.5880    -5.0640 ha         1 21O       0.159500
     39 HAM          7.4310    -2.3640    -5.5050 ha         1 21O       0.128500
     40 HAL          5.7610     1.2120    -7.1410 ha         1 21O       0.128500
@<TRIPOS>BOND
     1     1     2 1   
     2     2     3 1   
     3     2     4 1   
     4     4     5 1   
     5     4     8 1   
     6     5     6 1   
     7     5     7 1   
     8     8     9 1   
     9     8    15 1   
    10     9    10 ar  
    11     9    14 ar  
    12    10    11 ar  
    13    11    12 ar  
    14    12    13 ar  
    15    13    14 ar  
    16    15    16 1   
    17    16    17 2   
    18    16    18 1   
    19    18    19 ar  
    20    18    27 ar  
    21    19    20 ar  
    22    20    21 ar  
    23    21    22 1   
    24    21    26 ar  
    25    22    23 1   
    26    22    24 1   
    27    22    25 1   
    28    26    27 ar  
    29     4    28 1   
    30     8    29 1   
    31    15    30 1   
    32    15    31 1   
    33    10    32 1   
    34    14    33 1   
    35    11    34 1   
    36    12    35 1   
    37    13    36 1   
    38    19    37 1   
    39    27    38 1   
    40    20    39 1   
    41    26    40 1   
@<TRIPOS>SUBSTRUCTURE
     1 21O         1 TEMP              0 ****  ****    0 ROOT
