@<TRIPOS>MOLECULE
molecule
   52    55     1     0     0
SMALL
bcc


@<TRIPOS>ATOM
      1 C11          0.0000     0.0000     0.0000 ca         1 21P      -0.096000
      2 C14         -2.9330     2.0390     0.4980 c3         1 21P       0.095900
      3 C9           0.0220    -0.0020     2.3850 ca         1 21P      -0.061000
      4 C13         -2.1900    -0.0000     1.2190 c3         1 21P       0.429200
      5 C8           1.4140    -0.0020     2.3920 ca         1 21P      -0.174200
      6 C12          1.3760     0.0000     0.0000 ca         1 21P      -0.105000
      7 C19         -3.6280    -4.0280     1.2290 ca         1 21P      -0.090600
      8 C3           4.2410     0.5100     3.2050 c3         1 21P      -0.379400
      9 C18         -3.4040    -3.3670     0.0200 ca         1 21P      -0.109500
     10 C21         -2.9160    -2.0690     2.4240 ca         1 21P      -0.129500
     11 C20         -3.3800    -3.3680     2.4340 ca         1 21P      -0.109500
     12 C10         -0.6840    -0.0010     1.2020 ca         1 21P      -0.092300
     13 C16         -2.6970    -1.4200     1.2220 ca         1 21P      -0.129300
     14 C17         -2.9400    -2.0670     0.0230 ca         1 21P      -0.129500
     15 O2          -4.3490    -5.9870     0.1820 o          1 21P      -0.837300
     16 O1          -4.3440    -6.0530     2.4010 o          1 21P      -0.837300
     17 O4          -2.6590     0.6810     2.3880 os         1 21P      -0.411100
     18 C15         -3.4400     1.8090     1.9430 c3         1 21P       0.095900
     19 O3          -2.6850     0.6830     0.0540 os         1 21P      -0.411100
     20 Si1          2.5550    -0.0030     3.8890 Si         1 21P       0.479200
     21 C2           2.6440    -1.7080     4.6360 c3         1 21P      -0.260100
     22 C7           2.0960     0.0000     1.1930 ca         1 21P      -0.168200
     23 Si2          3.9660    -0.0010     1.4060 Si         1 21P       0.474200
     24 H11         -0.5450     0.0010    -0.9360 ha         1 21P       0.141000
     25 H14         -3.6970     2.5090    -0.1090 h1         1 21P       0.053700
     26 H14A        -2.0170     2.6180     0.4980 h1         1 21P       0.053700
     27 H9          -0.5150    -0.0030     3.3260 ha         1 21P       0.136000
     28 H5           4.2540     2.1900     0.3530 hc         1 21P       0.047200
     29 H5A          4.6570     0.8830    -0.7690 hc         1 21P       0.047200
     30 H5B          5.8000     1.3430     0.5010 hc         1 21P       0.047200
     31 H1           1.7530     2.1730     4.6700 hc         1 21P       0.049033
     32 H1A          2.7350     1.3720     5.9050 hc         1 21P       0.049033
     33 H1B          1.0660     0.8560     5.6310 hc         1 21P       0.049033
     34 H12          1.9090     0.0010    -0.9430 ha         1 21P       0.113000
     35 H3           4.3960     1.5780     3.2940 hc         1 21P       0.068700
     36 H3A          5.0430    -0.0600     3.6600 hc         1 21P       0.068700
     37 H6           3.9930    -2.4450     1.5330 hc         1 21P       0.047200
     38 H6A          5.6350    -1.7850     1.5510 hc         1 21P       0.047200
     39 H6B          4.7340    -1.8750     0.0310 hc         1 21P       0.047200
     40 H18         -3.5940    -3.8730    -0.9190 ha         1 21P       0.150500
     41 H21         -2.7230    -1.5570     3.3580 ha         1 21P       0.117500
     42 H20         -3.5520    -3.8760     3.3760 ha         1 21P       0.150500
     43 H17         -2.7660    -1.5530    -0.9140 ha         1 21P       0.117500
     44 H15         -4.4960     1.5650     1.9420 h1         1 21P       0.053700
     45 H15A        -3.2420     2.6780     2.5600 h1         1 21P       0.053700
     46 H2           3.5990    -1.8360     5.1320 hc         1 21P       0.049033
     47 H2A          2.5420    -2.4510     3.8540 hc         1 21P       0.049033
     48 H2B          1.8440    -1.8290     5.3560 hc         1 21P       0.049033
     49 C5           4.7510     1.2330     0.2520 c3         1 21P      -0.260100
     50 C1           1.9660     1.2280     5.1560 c3         1 21P      -0.260100
     51 C6           4.6540    -1.7050     1.0980 c3         1 21P      -0.260100
     52 C22         -4.1300    -5.4170     1.2330 c          1 21P       0.881200
@<TRIPOS>BOND
     1     1     6 ar  
     2     1    12 ar  
     3     2    18 1   
     4     2    19 1   
     5     3     5 ar  
     6     3    12 ar  
     7     4    12 1   
     8     4    13 1   
     9     4    17 1   
    10     4    19 1   
    11     5    20 1   
    12     5    22 ar  
    13    49    23 1   
    14    50    20 1   
    15     6    22 ar  
    16     7     9 ar  
    17     7    11 ar  
    18     7    52 1   
    19     8    20 1   
    20     8    23 1   
    21    51    23 1   
    22     9    14 ar  
    23    10    11 ar  
    24    10    13 ar  
    25    13    14 ar  
    26    15    52 1   
    27    52    16 1   
    28    17    18 1   
    29    20    21 1   
    30    22    23 1   
    31     1    24 1   
    32     2    25 1   
    33     2    26 1   
    34     3    27 1   
    35    49    28 1   
    36    49    29 1   
    37    49    30 1   
    38    50    31 1   
    39    50    32 1   
    40    50    33 1   
    41     6    34 1   
    42     8    35 1   
    43     8    36 1   
    44    51    37 1   
    45    51    38 1   
    46    51    39 1   
    47     9    40 1   
    48    10    41 1   
    49    11    42 1   
    50    14    43 1   
    51    18    44 1   
    52    18    45 1   
    53    21    46 1   
    54    21    47 1   
    55    21    48 1   
@<TRIPOS>SUBSTRUCTURE
     1 21P         1 TEMP              0 ****  ****    0 ROOT
