@<TRIPOS>MOLECULE
21P
   52    54     1     0     0
SMALL
bcc


@<TRIPOS>ATOM
      1 C11         0.4700   -1.2850    0.2380 c1        1 21P     -0.160000
      2 C14        -1.2310    1.3450   -0.4250 c3        1 21P     -0.106000
      3 C9          0.2160   -1.0850    2.5330 c2        1 21P     -0.033000
      4 C13        -1.8080   -0.4740    1.0650 c3        1 21P      0.294000
      5 C8          1.5590   -0.9530    2.6230 c2        1 21P     -0.465000
      6 C12         1.7770   -1.5140    0.2300 c2        1 21P     -0.085000
      7 C19        -4.6840   -3.7370    1.2440 c2        1 21P     -0.149000
      8 C3          3.5620    0.8380    3.3240 c3        1 21P     -0.831000
      9 C18        -4.0910   -3.4410   -0.0260 c1        1 21P     -0.048000
     10 C21        -3.3210   -2.0140    2.3220 c2        1 21P     -0.133000
     11 C20        -4.2790   -3.0880    2.3720 c2        1 21P     -0.090000
     12 C10        -0.4010   -0.9770    1.2000 c2        1 21P     -0.060000
     13 C16        -2.7840   -1.6260    1.1410 c2        1 21P     -0.157000
     14 C17        -3.1420   -2.3320   -0.1130 c3        1 21P     -0.189000
     15 O2         -6.9540   -4.4610    1.1170 o         1 21P     -0.559500
     16 O1         -5.4040   -5.9660    1.7030 o         1 21P     -0.559500
     17 O4         -2.0220    0.5070    2.0720 oh        1 21P     -0.368000
     18 C15        -1.6890    2.6350    0.0390 c1        1 21P     -0.082000
     19 O3         -2.0780    0.2290   -0.1440 os        1 21P     -0.313000
     20 SI1         2.4610   -0.4330    4.0810 Si        1 21P      1.274000
     21 C2          3.4490   -1.7860    4.8140 c3        1 21P     -0.562500
     22 C7          2.4810   -1.0080    1.4440 c3        1 21P     -0.360000
     23 SI2         3.3950    0.6340    1.5080 Si        1 21P      1.213000
     24 H11         2.3070   -2.1560   -0.4820 ha        1 21P      0.145000
     25 H14        -0.1850    1.1830   -0.0270 h1        1 21P      0.152000
     26 H14A       -1.1770    1.3700   -1.5550 h1        1 21P      0.152000
     27 H9         -0.4610   -1.0940    3.4000 ha        1 21P      0.149000
     28 H5          2.1990    1.7750   -0.3190 hc        1 21P      0.088833
     29 H5A         3.0980    2.9390    0.7110 hc        1 21P      0.088833
     30 H5B         1.5440    2.2460    1.2820 hc        1 21P      0.088833
     31 H1          0.5080   -0.3690    5.5820 hc        1 21P      0.087833
     32 H1A         1.9360    0.4220    6.3300 hc        1 21P      0.087833
     33 H1B         0.9900    1.2810    5.0670 hc        1 21P      0.087833
     34 H12         3.2570   -1.8060    1.6440 hc        1 21P      0.129000
     35 H3          4.6180    0.7050    3.6490 hc        1 21P      0.109500
     36 H3A         3.2600    1.8600    3.6450 hc        1 21P      0.109500
     37 H6          5.6010   -0.4030    1.1280 hc        1 21P      0.088833
     38 H6A         4.9370    0.2930   -0.3890 hc        1 21P      0.088833
     39 H6B         5.6530    1.3710    0.8550 hc        1 21P      0.088833
     40 H18        -2.2020   -2.7430   -0.5870 hc        1 21P      0.152500
     41 H21        -3.0550   -1.5100    3.2650 ha        1 21P      0.113000
     42 H20        -4.6850   -3.3600    3.3590 ha        1 21P      0.134000
     43 H17        -3.5630   -1.5890   -0.8540 hc        1 21P      0.152500
     44 H15        -2.5880    2.6510    0.6720 ha        1 21P      0.054000
     45 H15A       -2.9770    0.6380    2.1390 ho        1 21P      0.221000
     46 H2          4.1450   -1.4040    5.5960 hc        1 21P      0.087833
     47 H2A         4.0640   -2.3100    4.0460 hc        1 21P      0.087833
     48 H2B         2.7970   -2.5530    5.2940 hc        1 21P      0.087833
     49 C5          2.4850    2.0080    0.7330 c3        1 21P     -0.561000
     50 C1          1.3860    0.2840    5.3710 c3        1 21P     -0.562500
     51 C6          5.0310    0.4580    0.7090 c3        1 21P     -0.561000
     52 C22        -5.7650   -4.8120    1.3460 c2        1 21P      0.380000
@<TRIPOS>BOND
     1    1    6 1   
     2    1   12 1   
     3    2   18 1   
     4    2   19 1   
     5    2   25 1   
     6    2   26 1   
     7    3    5 1   
     8    3   12 1   
     9    3   27 1   
    10    4   12 1   
    11    4   13 1   
    12    4   17 1   
    13    4   19 1   
    14    5   20 1   
    15    5   22 1   
    16    6   22 1   
    17    6   24 1   
    18    7    9 1   
    19    7   11 1   
    20    7   52 1   
    21    8   20 1   
    22    8   23 1   
    23    8   35 1   
    24    8   36 1   
    25    9   14 1   
    26   10   11 1   
    27   10   13 1   
    28   10   41 1   
    29   11   42 1   
    30   13   14 1   
    31   14   40 1   
    32   14   43 1   
    33   15   52 1   
    34   16   52 1   
    35   17   45 1   
    36   18   44 1   
    37   20   21 1   
    38   20   50 1   
    39   21   46 1   
    40   21   47 1   
    41   21   48 1   
    42   22   23 1   
    43   22   34 1   
    44   23   49 1   
    45   23   51 1   
    46   28   49 1   
    47   29   49 1   
    48   30   49 1   
    49   31   50 1   
    50   32   50 1   
    51   33   50 1   
    52   37   51 1   
    53   38   51 1   
    54   39   51 1   
@<TRIPOS>SUBSTRUCTURE
     1 21P         1 TEMP              0 ****  ****    0 ROOT
