@<TRIPOS>MOLECULE
molecule
   56    57     1     0     0
SMALL
bcc


@<TRIPOS>ATOM
      1 C1           0.0000     0.0000     0.0000 c3         1 21Q      -0.082100
      2 C2           1.5300     0.0000     0.0000 c3         1 21Q      -0.022100
      3 C3           2.0320     0.0000     1.4210 cc         1 21Q      -0.014300
      4 N6           2.7390    -0.6670     3.4200 na         1 21Q      -0.139100
      5 C7           2.3030    -1.0960     2.1860 cd         1 21Q      -0.213900
      6 C8           2.1530    -2.4950     1.7650 c          1 21Q       0.706700
      7 C11          2.2250    -4.8220     2.2540 ca         1 21Q       0.011600
      8 C12          2.3890    -5.2190     0.9340 ca         1 21Q       0.000000
      9 C13          2.1660    -6.5350     0.5760 ca         1 21Q      -0.330500
     10 C14          1.7790    -7.4590     1.5300 ca         1 21Q      -0.010000
     11 C15          1.6130    -7.0720     2.8460 ca         1 21Q      -0.221000
     12 C16          1.8350    -5.7540     3.2140 ca         1 21Q       0.147100
     13 O17          1.6710    -5.3710     4.5080 oh         1 21Q      -0.503100
     14 C22          4.3250    -8.9090    -1.0400 c3         1 21Q       0.238300
     15 C24          4.9710    -6.5380    -1.6700 c3         1 21Q       0.238300
     16 O28          1.1110     3.0990     1.9060 o          1 21Q      -0.517100
     17 C4           2.3190     1.1380     2.2130 cd         1 21Q      -0.261600
     18 C5           2.7520     0.6740     3.4450 cc         1 21Q      -0.052600
     19 C26          3.1670     1.5300     4.6140 c3         1 21Q      -0.030800
     20 C29          3.3750     3.2870     1.2660 c3         1 21Q      -0.189100
     21 C23          4.3300    -9.6690    -2.3690 c3         1 21Q      -0.108100
     22 C25          5.1680    -6.5880    -3.1860 c3         1 21Q      -0.108100
     23 N10          2.4550    -3.4910     2.6200 ns         1 21Q      -0.473100
     24 N21          3.9510    -7.5130    -1.2770 n3         1 21Q      -0.820500
     25 O9           1.7560    -2.7540     0.6440 o          1 21Q      -0.580100
     26 O19          1.5820    -8.2040    -1.2710 o          1 21Q      -0.630300
     27 O20          2.2170    -5.8670    -1.8920 o          1 21Q      -0.630300
     28 S18          2.3740    -7.0370    -1.1000 sy         1 21Q       1.424200
     29 H1          -0.3610    -0.7570    -0.6860 hc         1 21Q       0.039700
     30 H2          -0.3610     0.9720    -0.3120 hc         1 21Q       0.039700
     31 H3          -0.3610    -0.2160     0.9980 hc         1 21Q       0.039700
     32 H4           1.8910     0.8840    -0.5110 hc         1 21Q       0.060700
     33 H5           1.8910    -0.8850    -0.5110 hc         1 21Q       0.060700
     34 H6           3.0060    -1.2630     4.1790 hn         1 21Q       0.294700
     35 H7           2.6920    -4.4980     0.1850 ha         1 21Q       0.190000
     36 H8           1.6050    -8.4890     1.2440 ha         1 21Q       0.152000
     37 H9           1.3090    -7.7980     3.5900 ha         1 21Q       0.140000
     38 H10          1.7890    -6.1160     5.0740 ho         1 21Q       0.428000
     39 H11          3.6350    -9.3850    -0.3540 h1         1 21Q       0.048950
     40 H12          5.3220    -8.9200    -0.6150 h1         1 21Q       0.048950
     41 H13          5.9160    -6.7290    -1.1760 h1         1 21Q       0.048950
     42 H14          4.6070    -5.5580    -1.3860 h1         1 21Q       0.048950
     43 H15          2.4380     2.3180     4.7610 hc         1 21Q       0.054367
     44 H16          4.1370     1.9680     4.4140 hc         1 21Q       0.054367
     45 H17          3.2230     0.9200     5.5070 hc         1 21Q       0.054367
     46 H18          3.6360     4.0900     1.9450 hc         1 21Q       0.060033
     47 H19          3.1300     3.7000     0.2960 hc         1 21Q       0.060033
     48 H20          4.2150     2.6090     1.1680 hc         1 21Q       0.060033
     49 H21          4.0510   -10.7010    -2.1950 hc         1 21Q       0.042533
     50 H22          3.6200    -9.2120    -3.0480 hc         1 21Q       0.042533
     51 H23          5.3210    -9.6300    -2.8030 hc         1 21Q       0.042533
     52 H24          4.2460    -6.9020    -3.6600 hc         1 21Q       0.042533
     53 H25          5.4440    -5.6040    -3.5470 hc         1 21Q       0.042533
     54 H26          5.9550    -7.2930    -3.4240 hc         1 21Q       0.042533
     55 H27          2.8850    -3.2820     3.4990 hn         1 21Q       0.320500
     56 C27          2.1830     2.5390     1.8070 c          1 21Q       0.609700
@<TRIPOS>BOND
     1    19    18 1   
     2    21    14 1   
     3    18     4 1   
     4    18    17 2   
     5     4     5 1   
     6    26    28 2   
     7    14    24 1   
     8    25     6 2   
     9    16    56 2   
    10    17    56 1   
    11    17     3 1   
    12    56    20 1   
    13     5     6 1   
    14     5     3 2   
    15    22    15 1   
    16    15    24 1   
    17     6    23 1   
    18    24    28 1   
    19     3     2 1   
    20    28     9 1   
    21    28    27 2   
    22     8     9 ar  
    23     8     7 ar  
    24     2     1 1   
    25    23     7 1   
    26     9    10 ar  
    27     7    12 ar  
    28    10    11 ar  
    29    12    11 ar  
    30    12    13 1   
    31     1    29 1   
    32     1    30 1   
    33     1    31 1   
    34     2    32 1   
    35     2    33 1   
    36     4    34 1   
    37     8    35 1   
    38    10    36 1   
    39    11    37 1   
    40    13    38 1   
    41    14    39 1   
    42    14    40 1   
    43    15    41 1   
    44    15    42 1   
    45    19    43 1   
    46    19    44 1   
    47    19    45 1   
    48    20    46 1   
    49    20    47 1   
    50    20    48 1   
    51    21    49 1   
    52    21    50 1   
    53    21    51 1   
    54    22    52 1   
    55    22    53 1   
    56    22    54 1   
    57    23    55 1   
@<TRIPOS>SUBSTRUCTURE
     1 21Q         1 TEMP              0 ****  ****    0 ROOT
