@<TRIPOS>MOLECULE
molecule
   51    52     1     0     0
SMALL
bcc


@<TRIPOS>ATOM
      1 C13          0.0000     0.0000     0.0000 ca         1 21R       0.075400
      2 C15          1.3840     0.0000     0.0000 ca         1 21R      -0.023600
      3 C17          2.0780     0.0000     1.1970 ca         1 21R      -0.065000
      4 C20          2.2950    -1.4380     4.2020 c3         1 21R      -0.094100
      5 C22         -4.4870     0.0060     6.6620 c3         1 21R       0.104000
      6 C24         -9.8360    -0.6990     5.8560 c3         1 21R      -0.228600
      7 O01         -9.5510    -3.1780     6.8010 o          1 21R      -0.626800
      8 S02         -8.8980    -1.9170     6.8200 s6         1 21R       1.326900
      9 N03         -7.5140    -2.1610     5.9440 n7         1 21R      -0.912100
     10 C04         -6.5580    -1.0650     5.7640 c3         1 21R       0.249500
     11 C05         -5.9260    -1.1630     4.3730 c3         1 21R      -0.113900
     12 C06         -4.9530     0.0050     4.1770 c3         1 21R       0.104000
     13 N07         -3.9840     0.0040     5.2810 n          1 21R      -0.491800
     14 C08         -2.6600     0.0040     5.0330 c          1 21R       0.658100
     15 C09         -2.1600     0.0030     3.6120 c3         1 21R       0.160800
     16 C11          0.0030     0.0020     2.3980 ca         1 21R       0.218600
     17 C12         -0.6930     0.0010     1.1960 ca         1 21R      -0.206000
     18 Cl1         -0.8670     0.0060    -1.5040 cl         1 21R      -0.093400
     19 Cl2          2.2510    -0.0020    -1.5040 cl         1 21R      -0.097400
     20 C18          1.3920     0.0000     2.3950 ca         1 21R      -0.145300
     21 C19          2.1490    -0.0010     3.6980 c3         1 21R      -0.033100
     22 O21         -1.8700     0.0040     5.9540 o          1 21R      -0.607100
     23 C23         -5.4660    -1.1610     6.8320 c3         1 21R      -0.113900
     24 C25        -11.1520    -0.3880     6.5720 c3         1 21R      -0.072100
     25 O26         -8.4440    -1.3460     8.0400 o          1 21R      -0.626800
     26 H171         3.1620    -0.0010     1.1940 ha         1 21R       0.151000
     27 H201         3.3220    -1.7600     4.0810 hc         1 21R       0.040033
     28 H202         1.6430    -2.0890     3.6310 hc         1 21R       0.040033
     29 H203         2.0230    -1.4820     5.2490 hc         1 21R       0.040033
     30 H221        -3.6590    -0.1140     7.3500 h1         1 21R       0.060950
     31 H222        -4.9990     0.9400     6.8600 h1         1 21R       0.060950
     32 H241        -9.2540     0.2090     5.7580 h1         1 21R       0.094700
     33 H242       -10.0460    -1.1020     4.8720 h1         1 21R       0.094700
     34 H031        -7.3180    -3.0640     5.5590 hn         1 21R       0.458800
     35 H041        -7.0700    -0.1150     5.8590 h1         1 21R       0.051700
     36 H051        -6.7020    -1.1160     3.6200 hc         1 21R       0.065450
     37 H052        -5.3870    -2.0990     4.2870 hc         1 21R       0.065450
     38 H061        -5.5030     0.9380     4.1790 h1         1 21R       0.060950
     39 H062        -4.4300    -0.1140     3.2360 h1         1 21R       0.060950
     40 H091        -2.5220     0.8870     3.1010 h1         1 21R       0.058200
     41 H092        -2.5220    -0.8830     3.1030 h1         1 21R       0.058200
     42 H101        -0.1940     0.0320     4.4750 hn         1 21R       0.471800
     43 H121        -1.7760     0.0010     1.1960 ha         1 21R       0.143000
     44 H191         1.6070     0.5850     4.4300 hc         1 21R       0.050200
     45 H192         3.1310     0.4300     3.5450 hc         1 21R       0.050200
     46 H231        -5.9180    -1.1120     7.8150 hc         1 21R       0.065450
     47 H232        -4.9340    -2.0980     6.7190 hc         1 21R       0.065450
     48 H251       -11.6800    -1.3120     6.7760 hc         1 21R       0.052033
     49 H253       -10.9440     0.1230     7.5040 hc         1 21R       0.052033
     50 H2         -11.7650     0.2460     5.9410 hc         1 21R       0.052033
     51 N10         -0.6950     0.0030     3.6090 nu         1 21R      -0.812600
@<TRIPOS>BOND
     1     1     2 ar
     2     1    17 ar
     3     1    18 1
     4     2     3 ar
     5     2    19 1
     6     3    20 ar
     7     4    21 1
     8     5    13 1
     9     5    23 1
    10     6     8 1
    11     6    24 1
    12     7     8 2
    13     8     9 1
    14     8    25 2
    15     9    10 1
    16    10    11 1
    17    10    23 1
    18    11    12 1
    19    12    13 1
    20    13    14 1
    21    14    15 1
    22    14    22 2
    23    15    51 1
    24    51    16 1
    25    16    17 ar
    26    16    20 ar
    27    20    21 1
    28     3    26 1
    29     4    27 1
    30     4    28 1
    31     4    29 1
    32     5    30 1
    33     5    31 1
    34     6    32 1
    35     6    33 1
    36     9    34 1
    37    10    35 1
    38    11    36 1
    39    11    37 1
    40    12    38 1
    41    12    39 1
    42    15    40 1
    43    15    41 1
    44    51    42 1
    45    17    43 1
    46    21    44 1
    47    21    45 1
    48    23    46 1
    49    23    47 1
    50    24    48 1
    51    24    49 1
    52    24    50 1
@<TRIPOS>SUBSTRUCTURE
     1 21R         1 TEMP              0 ****  ****    0 ROOT
