@<TRIPOS>MOLECULE
21R
   51    52     1     0     0
SMALL
bcc


@<TRIPOS>ATOM
      1 C13          0.0000     0.0000     0.0000 ca         1 21R       0.015400
      2 C15          1.3840     0.0000     0.0000 ca         1 21R      -0.096600
      3 C17          2.0780     0.0000     1.1970 ca         1 21R      -0.035000
      4 C20          2.2950    -1.4380     4.2020 c3         1 21R      -0.001100
      5 C22         -4.4870     0.0060     6.6620 c3         1 21R       0.052000
      6 C24         -9.8360    -0.6990     5.8560 c3         1 21R      -0.012600
      7 O01         -9.5510    -3.1780     6.8010 o          1 21R      -0.580300
      8 S02         -8.8980    -1.9170     6.8200 s6         1 21R       0.954900
      9 N03         -7.5140    -2.1610     5.9440 n7         1 21R      -0.593100
     10 C04         -6.5580    -1.0650     5.7640 c3         1 21R       0.209500
     11 C05         -5.9260    -1.1630     4.3730 c3         1 21R      -0.065400
     12 C06         -4.9530     0.0050     4.1770 c3         1 21R       0.052000
     13 N07         -3.9840     0.0040     5.2810 n          1 21R      -0.150800
     14 C08         -2.6600     0.0040     5.0330 c          1 21R       0.585100
     15 C09         -2.1600     0.0030     3.6120 c3         1 21R       0.088800
     16 C11          0.0030     0.0020     2.3980 ca         1 21R       0.084600
     17 C12         -0.6930     0.0010     1.1960 ca         1 21R      -0.197000
     18 Cl1         -0.8670     0.0060    -1.5040 cl         1 21R      -0.019400
     19 Cl2          2.2510    -0.0020    -1.5040 cl         1 21R      -0.016400
     20 C18          1.3920     0.0000     2.3950 ca         1 21R      -0.155300
     21 C19          2.1490    -0.0010     3.6980 c3         1 21R       0.034900
     22 O21         -1.8700     0.0040     5.9540 o          1 21R      -0.646100
     23 C23         -5.4660    -1.1610     6.8320 c3         1 21R      -0.065400
     24 C25        -11.1520    -0.3880     6.5720 c3         1 21R       0.041900
     25 O26         -8.4440    -1.3460     8.0400 o          1 21R      -0.580300
     26 H171         3.1620    -0.0010     1.1940 ha         1 21R       0.117000
     27 H201         3.3220    -1.7600     4.0810 hc         1 21R       0.006367
     28 H202         1.6430    -2.0890     3.6310 hc         1 21R       0.006367
     29 H203         2.0230    -1.4820     5.2490 hc         1 21R       0.006367
     30 H221        -3.6590    -0.1140     7.3500 h1         1 21R       0.032450
     31 H222        -4.9990     0.9400     6.8600 h1         1 21R       0.032450
     32 H241        -9.2540     0.2090     5.7580 h1         1 21R       0.063200
     33 H242       -10.0460    -1.1020     4.8720 h1         1 21R       0.063200
     34 H031        -7.3180    -3.0640     5.5590 hn         1 21R       0.355800
     35 H041        -7.0700    -0.1150     5.8590 h1         1 21R       0.025700
     36 H051        -6.7020    -1.1160     3.6200 hc         1 21R       0.036450
     37 H052        -5.3870    -2.0990     4.2870 hc         1 21R       0.036450
     38 H061        -5.5030     0.9380     4.1790 h1         1 21R       0.032450
     39 H062        -4.4300    -0.1140     3.2360 h1         1 21R       0.032450
     40 H091        -2.5220     0.8870     3.1010 h1         1 21R       0.029700
     41 H092        -2.5220    -0.8830     3.1030 h1         1 21R       0.029700
     42 H101        -0.1940     0.0320     4.4750 hn         1 21R       0.334800
     43 H121        -1.7760     0.0010     1.1960 ha         1 21R       0.122000
     44 H191         1.6070     0.5850     4.4300 hc         1 21R       0.019700
     45 H192         3.1310     0.4300     3.5450 hc         1 21R       0.019700
     46 H231        -5.9180    -1.1120     7.8150 hc         1 21R       0.036450
     47 H232        -4.9340    -2.0980     6.7190 hc         1 21R       0.036450
     48 H251       -11.6800    -1.3120     6.7760 hc         1 21R       0.013367
     49 H253       -10.9440     0.1230     7.5040 hc         1 21R       0.013367
     50 H2         -11.7650     0.2460     5.9410 hc         1 21R       0.013367
     51 N10         -0.6950     0.0030     3.6090 nu         1 21R      -0.421600
@<TRIPOS>BOND
     1     1     2 ar  
     2     1    17 ar  
     3     1    18 1   
     4     2     3 ar  
     5     2    19 1   
     6     3    20 ar  
     7     3    26 1   
     8     4    21 1   
     9     4    27 1   
    10     4    28 1   
    11     4    29 1   
    12     5    13 1   
    13     5    23 1   
    14     5    30 1   
    15     5    31 1   
    16     6     8 1   
    17     6    24 1   
    18     6    32 1   
    19     6    33 1   
    20     7     8 2   
    21     8     9 1   
    22     8    25 2   
    23     9    10 1   
    24     9    34 1   
    25    10    11 1   
    26    10    23 1   
    27    10    35 1   
    28    11    12 1   
    29    11    36 1   
    30    11    37 1   
    31    12    13 1   
    32    12    38 1   
    33    12    39 1   
    34    13    14 1   
    35    14    15 1   
    36    14    22 2   
    37    15    40 1   
    38    15    41 1   
    39    15    51 1   
    40    16    17 ar  
    41    16    20 ar  
    42    16    51 1   
    43    17    43 1   
    44    20    21 1   
    45    21    44 1   
    46    21    45 1   
    47    23    46 1   
    48    23    47 1   
    49    24    48 1   
    50    24    49 1   
    51    24    50 1   
    52    42    51 1   
@<TRIPOS>SUBSTRUCTURE
     1 21R         1 TEMP              0 ****  ****    0 ROOT
