@<TRIPOS>MOLECULE
21S
   46    48     1     0     0
SMALL
bcc


@<TRIPOS>ATOM
      1 C10          0.0000     0.0000     0.0000 c3         1 21S       0.209500
      2 C13         -1.4610     2.6000    -1.4120 c3         1 21S      -0.012600
      3 C17          1.5300     0.0000     0.0000 c3         1 21S      -0.066400
      4 C20          6.5670    -3.1930     2.6800 ca         1 21S      -0.100000
      5 C24          8.0010    -2.9810     2.8480 ca         1 21S      -0.087000
      6 C02          6.2030    -2.1730     4.8330 ca         1 21S      -0.019600
      7 C03          5.6920    -2.7650     3.7170 ca         1 21S       0.051600
      8 N04          4.3140    -2.9500     3.5910 nu         1 21S      -0.455600
      9 C05          3.7040    -1.8600     2.8170 c3         1 21S       0.090800
     10 C06          2.2060    -2.0240     2.8120 c          1 21S       0.588100
     11 N07          1.4330    -1.1340     2.1580 n          1 21S      -0.162800
     12 C08         -0.0290    -1.2810     2.1440 c3         1 21S       0.054000
     13 C09         -0.5120    -1.2660     0.6900 c3         1 21S      -0.066400
     14 N11         -0.4880     0.0330    -1.3810 n7         1 21S      -0.592100
     15 S12         -1.8710     0.8660    -1.7500 s6         1 21S       0.952900
     16 C14         -2.6750     3.4790    -1.7180 c3         1 21S       0.040900
     17 O15         -2.8290     0.3870    -0.8160 o          1 21S      -0.581300
     18 O16         -2.0430     0.6570    -3.1460 o          1 21S      -0.581300
     19 C18          2.0370     0.0000     1.4460 c3         1 21S       0.054000
     20 O19          1.6960    -2.9560     3.3960 o          1 21S      -0.635100
     21 N21          6.3180    -3.7860     1.5240 nc         1 21S      -0.242500
     22 S22          7.6550    -4.0380     0.7720 ss         1 21S       0.517000
     23 N23          8.6620    -3.4370     1.7950 nc         1 21S      -0.219500
     24 C25          8.4610    -2.3590     4.0360 ca         1 21S       0.001400
     25 Cl2         10.1600    -2.0890     4.2740 cl         1 21S       0.017600
     26 C27          7.5740    -1.9730     4.9880 ca         1 21S      -0.092000
     27 H101        -0.3590     0.8710     0.5350 h1         1 21S       0.025700
     28 H131        -0.6290     2.9030    -2.0350 h1         1 21S       0.063200
     29 H132        -1.1900     2.7100    -0.3690 h1         1 21S       0.063200
     30 H171         1.8900     0.8860    -0.5080 hc         1 21S       0.035200
     31 H172         1.8900    -0.8860    -0.5080 hc         1 21S       0.035200
     32 H041         3.9340    -3.8750     3.5570 hn         1 21S       0.322800
     33 H051         3.9620    -0.9090     3.2670 h1         1 21S       0.024700
     34 H052         4.0740    -1.8900     1.7990 h1         1 21S       0.024700
     35 H081        -0.3020    -2.2210     2.6080 h1         1 21S       0.031200
     36 H082        -0.4800    -0.4580     2.6850 h1         1 21S       0.031200
     37 H091        -0.1290    -2.1380     0.1740 hc         1 21S       0.035200
     38 H092        -1.5950    -1.2740     0.6710 hc         1 21S       0.035200
     39 H111        -0.0040    -0.4750    -2.0950 hn         1 21S       0.354800
     40 H141        -2.4320     4.5150    -1.5100 hc         1 21S       0.013700
     41 H142        -2.9430     3.3740    -2.7620 hc         1 21S       0.013700
     42 H1          -3.5090     3.1730    -1.0980 hc         1 21S       0.013700
     43 H181         1.7500     0.9260     1.9300 h1         1 21S       0.031200
     44 H182         3.1150    -0.1010     1.4520 h1         1 21S       0.031200
     45 H271         7.9400    -1.4970     5.8900 ha         1 21S       0.130000
     46 Cl1          5.1230    -1.6560     6.0900 cl         1 21S       0.018600
@<TRIPOS>BOND
     1     1     3 1   
     2     1    13 1   
     3     1    14 1   
     4     1    27 1   
     5     2    15 1   
     6     2    16 1   
     7     2    28 1   
     8     2    29 1   
     9     3    19 1   
    10     3    30 1   
    11     3    31 1   
    12     4     5 ar  
    13     4     7 ar  
    14     4    21 2   
    15     5    23 2   
    16     5    24 ar  
    17     6     7 ar  
    18     6    26 ar  
    19     6    46 1   
    20     7     8 1   
    21     8     9 1   
    22     8    32 1   
    23     9    10 1   
    24     9    33 1   
    25     9    34 1   
    26    10    11 1   
    27    10    20 2   
    28    11    12 1   
    29    11    19 1   
    30    12    13 1   
    31    12    35 1   
    32    12    36 1   
    33    13    37 1   
    34    13    38 1   
    35    14    15 1   
    36    14    39 1   
    37    15    17 2   
    38    15    18 2   
    39    16    40 1   
    40    16    41 1   
    41    16    42 1   
    42    19    43 1   
    43    19    44 1   
    44    21    22 1   
    45    22    23 1   
    46    24    25 1   
    47    24    26 ar  
    48    26    45 1   
@<TRIPOS>SUBSTRUCTURE
     1 21S         1 TEMP              0 ****  ****    0 ROOT
