@<TRIPOS>MOLECULE
molecule
   46    48     1     0     0
SMALL
bcc


@<TRIPOS>ATOM
      1 C10          0.0000     0.0000     0.0000 c3         1 21S       0.249500
      2 C13         -1.4610     2.6000    -1.4120 c3         1 21S      -0.228600
      3 C17          1.5300     0.0000     0.0000 c3         1 21S      -0.113900
      4 C20          6.5670    -3.1930     2.6800 ca         1 21S      -0.085000
      5 C24          8.0010    -2.9810     2.8480 ca         1 21S      -0.065000
      6 C02          6.2030    -2.1730     4.8330 ca         1 21S       0.040400
      7 C03          5.6920    -2.7650     3.7170 ca         1 21S       0.179600
      8 N04          4.3140    -2.9500     3.5910 nu         1 21S      -0.796600
      9 C05          3.7040    -1.8600     2.8170 c3         1 21S       0.147800
     10 C06          2.2060    -2.0240     2.8120 c          1 21S       0.661100
     11 N07          1.4330    -1.1340     2.1580 n          1 21S      -0.498800
     12 C08         -0.0290    -1.2810     2.1440 c3         1 21S       0.105500
     13 C09         -0.5120    -1.2660     0.6900 c3         1 21S      -0.113900
     14 N11         -0.4880     0.0330    -1.3810 n7         1 21S      -0.912100
     15 S12         -1.8710     0.8660    -1.7500 s6         1 21S       1.325900
     16 C14         -2.6750     3.4790    -1.7180 c3         1 21S      -0.072100
     17 O15         -2.8290     0.3870    -0.8160 o          1 21S      -0.627300
     18 O16         -2.0430     0.6570    -3.1460 o          1 21S      -0.627300
     19 C18          2.0370     0.0000     1.4460 c3         1 21S       0.105500
     20 O19          1.6960    -2.9560     3.3960 o          1 21S      -0.595100
     21 N21          6.3180    -3.7860     1.5240 nc         1 21S      -0.388500
     22 S22          7.6550    -4.0380     0.7720 ss         1 21S       0.766000
     23 N23          8.6620    -3.4370     1.7950 nc         1 21S      -0.368500
     24 C25          8.4610    -2.3590     4.0360 ca         1 21S       0.075400
     25 Cl2         10.1600    -2.0890     4.2740 cl         1 21S      -0.069400
     26 C27          7.5740    -1.9730     4.9880 ca         1 21S      -0.111000
     27 H101        -0.3590     0.8710     0.5350 h1         1 21S       0.051700
     28 H131        -0.6290     2.9030    -2.0350 h1         1 21S       0.094700
     29 H132        -1.1900     2.7100    -0.3690 h1         1 21S       0.094700
     30 H171         1.8900     0.8860    -0.5080 hc         1 21S       0.063700
     31 H172         1.8900    -0.8860    -0.5080 hc         1 21S       0.063700
     32 H041         3.9340    -3.8750     3.5570 hn         1 21S       0.459800
     33 H051         3.9620    -0.9090     3.2670 h1         1 21S       0.053700
     34 H052         4.0740    -1.8900     1.7990 h1         1 21S       0.053700
     35 H081        -0.3020    -2.2210     2.6080 h1         1 21S       0.059700
     36 H082        -0.4800    -0.4580     2.6850 h1         1 21S       0.059700
     37 H091        -0.1290    -2.1380     0.1740 hc         1 21S       0.063700
     38 H092        -1.5950    -1.2740     0.6710 hc         1 21S       0.063700
     39 H111        -0.0040    -0.4750    -2.0950 hn         1 21S       0.458800
     40 H141        -2.4320     4.5150    -1.5100 hc         1 21S       0.051700
     41 H142        -2.9430     3.3740    -2.7620 hc         1 21S       0.051700
     42 H1          -3.5090     3.1730    -1.0980 hc         1 21S       0.051700
     43 H181         1.7500     0.9260     1.9300 h1         1 21S       0.059700
     44 H182         3.1150    -0.1010     1.4520 h1         1 21S       0.059700
     45 H271         7.9400    -1.4970     5.8900 ha         1 21S       0.165000
     46 Cl1          5.1230    -1.6560     6.0900 cl         1 21S      -0.065400
@<TRIPOS>BOND
     1     1     3 1   
     2     1    13 1   
     3     1    14 1   
     4     2    15 1   
     5     2    16 1   
     6     3    19 1   
     7     4     5 ar  
     8     4     7 ar  
     9     4    21 2   
    10     5    23 2   
    11     5    24 ar  
    12    46     6 1   
    13     6     7 ar  
    14     6    26 ar  
    15     7     8 1   
    16     8     9 1   
    17     9    10 1   
    18    10    11 1   
    19    10    20 2   
    20    11    12 1   
    21    11    19 1   
    22    12    13 1   
    23    14    15 1   
    24    15    17 2   
    25    15    18 2   
    26    21    22 1   
    27    22    23 1   
    28    24    25 1   
    29    24    26 ar  
    30     1    27 1   
    31     2    28 1   
    32     2    29 1   
    33     3    30 1   
    34     3    31 1   
    35     8    32 1   
    36     9    33 1   
    37     9    34 1   
    38    12    35 1   
    39    12    36 1   
    40    13    37 1   
    41    13    38 1   
    42    14    39 1   
    43    16    40 1   
    44    16    41 1   
    45    16    42 1   
    46    19    43 1   
    47    19    44 1   
    48    26    45 1   
@<TRIPOS>SUBSTRUCTURE
     1 21S         1 TEMP              0 ****  ****    0 ROOT
