@<TRIPOS>MOLECULE
21T
   61    65     1     0     0
SMALL
bcc


@<TRIPOS>ATOM
      1 C1           0.0000     0.0000     0.0000 c3         1 21T      -0.025767
      2 C2           1.5300     0.0000     0.0000 c3         1 21T       0.032300
      3 C3           2.0400     0.0000     1.4430 c3         1 21T      -0.025767
      4 C7           2.7590     2.6630    -2.2850 cc         1 21T       0.402200
      5 C8           2.1350     2.7430     1.2060 ca         1 21T      -0.228200
      6 C9           0.8750     3.0560     1.7040 ca         1 21T      -0.105000
      7 C10          0.7160     3.3650     3.0370 ca         1 21T      -0.076500
      8 C11          1.8230     3.3620     3.8890 ca         1 21T      -0.069600
      9 C12          3.0880     3.0480     3.3850 ca         1 21T      -0.076500
     10 C13          3.2390     2.7410     2.0510 ca         1 21T      -0.105000
     11 C14          1.6570     3.6920     5.3180 c          1 21T       0.966200
     12 C15          2.1940     0.2710    -3.0650 c          1 21T       0.659700
     13 C16          3.1450    -1.1700    -4.7840 c3         1 21T       0.032700
     14 C19          5.0320    -0.1910    -6.8000 c3         1 21T      -0.042200
     15 C20          4.9010    -1.2980    -7.8470 c3         1 21T      -0.014400
     16 C21          3.8920    -2.3410    -7.3640 c3         1 21T      -0.042200
     17 C22          2.5300    -1.6750    -7.1530 c3         1 21T      -0.015400
     18 C24          4.5060    -1.8360    -4.9950 c3         1 21T      -0.055700
     19 C4           2.0410    -1.2490    -0.7210 c3         1 21T      -0.025767
     20 C5           2.0330     1.2310    -0.7100 cd         1 21T      -0.181600
     21 C6           2.3200     1.3380    -2.0550 cc         1 21T      -0.423900
     22 N1           2.7370     3.2980    -1.1460 nd         1 21T      -0.670800
     23 N2           2.2910     2.4260    -0.1470 na         1 21T       0.691300
     24 O1           0.5570     3.9650     5.7540 o          1 21T      -0.874800
     25 O2           2.7260     3.6890     6.1380 o          1 21T      -0.874800
     26 O3           1.1190    -0.2660    -3.2510 o          1 21T      -0.666100
     27 N3           3.2710    -0.1090    -3.7810 ns         1 21T      -0.208900
     28 C17          2.6620    -0.5670    -6.1050 c3         1 21T      -0.055700
     29 C18          3.6710     0.4760    -6.5890 c3         1 21T      -0.015400
     30 C23          4.3750    -2.9430    -6.0430 c3         1 21T      -0.015400
     31 C25          5.5150    -0.7930    -5.4790 c3         1 21T      -0.015400
     32 H1          -0.3610    -0.8420    -0.5780 hc         1 21T       0.017700
     33 H2          -0.3610    -0.0800     1.0180 hc         1 21T       0.017700
     34 H3          -0.3610     0.9220    -0.4400 hc         1 21T       0.017700
     35 H4           1.9480    -0.9960     1.8590 hc         1 21T       0.017700
     36 H5           1.4540     0.6930     2.0340 hc         1 21T       0.017700
     37 H6           3.0800     0.3030     1.4580 hc         1 21T       0.017700
     38 H7           3.0610     3.0770    -3.2390 h4         1 21T      -0.005900
     39 H8           0.0230     3.0920     1.0360 ha         1 21T       0.099000
     40 H9          -0.2550     3.6700     3.4100 ha         1 21T       0.133000
     41 H10          3.9580     3.1060     4.0290 ha         1 21T       0.133000
     42 H11          4.2210     2.5130     1.6560 ha         1 21T       0.099000
     43 H12          2.4300    -1.9080    -4.4400 h1         1 21T       0.056700
     44 H13          5.7460     0.5480    -7.1430 hc         1 21T       0.019700
     45 H16          3.8000    -3.1250    -8.1060 hc         1 21T       0.019700
     46 H17          1.8160    -2.4130    -6.8090 hc         1 21T       0.015950
     47 H18          2.1880    -1.2490    -8.0880 hc         1 21T       0.015950
     48 H19          4.8480    -2.2630    -4.0600 hc         1 21T       0.039200
     49 H20          3.0500    -1.0740    -1.0740 hc         1 21T       0.017700
     50 H21          2.0390    -2.0880    -0.0360 hc         1 21T       0.017700
     51 H22          1.3960    -1.4690    -1.5630 hc         1 21T       0.017700
     52 H24          4.1670     0.2930    -3.5890 hn         1 21T       0.185500
     53 H25          1.6980    -0.0950    -5.9560 hc         1 21T       0.039200
     54 H26          3.3290     0.9030    -7.5230 hc         1 21T       0.015950
     55 H27          3.7640     1.2590    -5.8460 hc         1 21T       0.015950
     56 H28          3.6610    -3.6820    -5.7000 hc         1 21T       0.015950
     57 H29          5.3390    -3.4150    -6.1910 hc         1 21T       0.015950
     58 H30          6.4790    -1.2640    -5.6280 hc         1 21T       0.015950
     59 H31          5.6070    -0.0090    -4.7370 hc         1 21T       0.015950
     60 H14          4.5580    -0.8720    -8.7830 hc         1 21T       0.011700
     61 H15          5.8640    -1.7700    -7.9970 hc         1 21T       0.011700
@<TRIPOS>BOND
     1     1     2 1   
     2     1    32 1   
     3     1    33 1   
     4     1    34 1   
     5     2     3 1   
     6     2    19 1   
     7     2    20 1   
     8     3    35 1   
     9     3    36 1   
    10     3    37 1   
    11     4    21 1   
    12     4    22 2   
    13     4    38 1   
    14     5     6 ar  
    15     5    10 ar  
    16     5    23 1   
    17     6     7 ar  
    18     6    39 1   
    19     7     8 ar  
    20     7    40 1   
    21     8     9 ar  
    22     8    11 1   
    23     9    10 ar  
    24     9    41 1   
    25    10    42 1   
    26    11    24 1   
    27    11    25 1   
    28    12    21 1   
    29    12    26 2   
    30    12    27 1   
    31    13    18 1   
    32    13    27 1   
    33    13    28 1   
    34    13    43 1   
    35    14    15 1   
    36    14    29 1   
    37    14    31 1   
    38    14    44 1   
    39    15    16 1   
    40    15    60 1   
    41    15    61 1   
    42    16    17 1   
    43    16    30 1   
    44    16    45 1   
    45    17    28 1   
    46    17    46 1   
    47    17    47 1   
    48    18    30 1   
    49    18    31 1   
    50    18    48 1   
    51    19    49 1   
    52    19    50 1   
    53    19    51 1   
    54    20    21 2   
    55    20    23 1   
    56    22    23 1   
    57    27    52 1   
    58    28    29 1   
    59    28    53 1   
    60    29    54 1   
    61    29    55 1   
    62    30    56 1   
    63    30    57 1   
    64    31    58 1   
    65    31    59 1   
@<TRIPOS>SUBSTRUCTURE
     1 21T         1 TEMP              0 ****  ****    0 ROOT
