@<TRIPOS>MOLECULE
molecule
   51    52     1     0     0
SMALL
bcc


@<TRIPOS>ATOM
      1 N2           0.0000     0.0000     0.0000 nz         1 21U      -0.794600
      2 C15          1.4680     0.0000     0.0000 c3         1 21U       0.026500
      3 C16          1.9780     0.0000     1.4420 c3         1 21U      -0.103400
      4 C12          1.5740    -1.3070     2.1260 c3         1 21U      -0.092700
      5 C13          2.2840    -2.4800     1.4460 c3         1 21U      -0.091600
      6 C18          1.9750    -1.2560     3.6010 c3         1 21U      -0.091600
      7 C14          1.9700     1.2300    -0.7120 c          1 21U       0.670100
      8 O32          1.2430     2.1900    -0.8510 o          1 21U      -0.583100
      9 N1           3.2300     1.2630    -1.1930 n          1 21U      -0.448800
     10 C1           3.8430     2.3930    -1.9080 c3         1 21U       0.036700
     11 C7           3.0830     2.6670    -3.1800 c          1 21U       0.654100
     12 O22          2.1190     1.9900    -3.4680 o          1 21U      -0.613100
     13 C2           5.2960     1.9890    -2.2380 c3         1 21U      -0.088400
     14 C3           5.5930     0.8740    -1.2010 c3         1 21U      -0.089400
     15 C4           4.2160     0.1730    -1.0940 c3         1 21U       0.075000
     16 N23          3.4740     3.6650    -3.9960 ns         1 21U      -0.569900
     17 C24          2.7350     3.9330    -5.2330 c3         1 21U       0.163300
     18 C25          3.3730     5.0900    -5.9580 ca         1 21U      -0.123300
     19 C26          2.9490     6.3810    -5.7050 ca         1 21U      -0.113000
     20 C27          3.5350     7.4440    -6.3670 ca         1 21U      -0.117000
     21 C28          4.5390     7.2150    -7.2900 ca         1 21U      -0.104000
     22 C29          4.9590     5.9230    -7.5460 ca         1 21U       0.027400
     23 C30          4.3750     4.8590    -6.8810 ca         1 21U      -0.107000
     24 Cl21         6.2210     5.6340    -8.7050 cl         1 21U      -0.091400
     25 HN2         -0.3340     0.2450    -0.9110 hn         1 21U       0.463133
     26 HN2A        -0.3340    -0.9120     0.2440 hn         1 21U       0.463133
     27 H15          1.8290    -0.8850    -0.5110 hx         1 21U       0.127700
     28 H16          3.0580     0.0890     1.4430 hc         1 21U       0.090200
     29 H16A         1.5470     0.8370     1.9780 hc         1 21U       0.090200
     30 H12          0.5020    -1.4390     2.0480 hc         1 21U       0.024700
     31 H13          1.8980    -2.6020     0.4410 hc         1 21U       0.050867
     32 H13A         3.3480    -2.2830     1.4030 hc         1 21U       0.050867
     33 H13B         2.1070    -3.3870     2.0120 hc         1 21U       0.050867
     34 H18          1.4890    -0.4130     4.0780 hc         1 21U       0.050867
     35 H18A         3.0490    -1.1440     3.6800 hc         1 21U       0.050867
     36 H18B         1.6700    -2.1730     4.0900 hc         1 21U       0.050867
     37 H1           3.8420     3.2720    -1.2750 h1         1 21U       0.089700
     38 H2           5.3640     1.6000    -3.2470 hc         1 21U       0.077200
     39 H2A          5.9660     2.8290    -2.0970 hc         1 21U       0.077200
     40 H3           5.8850     1.3000    -0.2490 hc         1 21U       0.073700
     41 H3A          6.3460     0.1900    -1.5760 hc         1 21U       0.073700
     42 H4           4.0860    -0.5270    -1.9100 h1         1 21U       0.055200
     43 H4A          4.1250    -0.3300    -0.1390 h1         1 21U       0.055200
     44 HN23         4.2420     4.2530    -3.7350 hn         1 21U       0.323500
     45 H24          1.7070     4.1780    -4.9930 h1         1 21U       0.065200
     46 H24A         2.7580     3.0530    -5.8650 h1         1 21U       0.065200
     47 H26          2.1630     6.5610    -4.9820 ha         1 21U       0.138000
     48 H27          3.2040     8.4560    -6.1660 ha         1 21U       0.146000
     49 H28          4.9970     8.0480    -7.8100 ha         1 21U       0.154000
     50 H30          4.7050     3.8470    -7.0810 ha         1 21U       0.147000
     51 H23         -0.3340     0.6780     0.6560 hn         1 21U       0.463133
@<TRIPOS>BOND
     1     3     2 1
     2     3     4 1
     3     1     2 1
     4     2     7 1
     5     7     8 2
     6     7     9 1
     7     9    15 1
     8     9    10 1
     9    15    14 1
    10    14    13 1
    11    13    10 1
    12    10    11 1
    13    11    16 1
    14    11    12 2
    15    16    17 1
    16    17    18 1
    17    18    23 ar
    18    18    19 ar
    19    23    22 ar
    20    22    21 ar
    21    22    24 1
    22    21    20 ar
    23    20    19 ar
    24     4     5 1
    25     4     6 1
    26     3    28 1
    27     3    29 1
    28     1    25 1
    29     1    26 1
    30     2    27 1
    31    15    42 1
    32    15    43 1
    33    14    40 1
    34    14    41 1
    35    13    38 1
    36    13    39 1
    37    10    37 1
    38    16    44 1
    39    17    45 1
    40    17    46 1
    41    23    50 1
    42    21    49 1
    43    20    48 1
    44    19    47 1
    45     4    30 1
    46     5    31 1
    47     5    32 1
    48     5    33 1
    49     6    34 1
    50     6    35 1
    51     6    36 1
    52    51     1 1
@<TRIPOS>SUBSTRUCTURE
     1 21U         1 TEMP              0 ****  ****    0 ROOT
