@<TRIPOS>MOLECULE
molecule
   56    58     1     0     0
SMALL
bcc


@<TRIPOS>ATOM
      1 OE2          0.0000     0.0000     0.0000 o          1 21V      -0.811300
      2 CD           1.3420     0.0000     0.0000 c          1 21V       0.887600
      3 OE1          1.9450     0.0000     1.0470 o          1 21V      -0.811300
      4 CG           2.0970    -0.0020    -1.3050 c3         1 21V      -0.173400
      5 CB           3.6000    -0.0010    -1.0240 c3         1 21V      -0.064400
      6 CA           4.3650    -0.0030    -2.3490 c3         1 21V       0.013700
      7 CT           5.8430     0.1210    -2.0750 c          1 21V       0.888600
      8 O1           6.3180     1.1970    -1.4280 o          1 21V      -0.799800
      9 O2           6.5990    -0.7480    -2.4390 o          1 21V      -0.799800
     10 N            4.1050    -1.2550    -3.0630 ns         1 21V      -0.520900
     11 C            4.2260    -1.3050    -4.4040 c          1 21V       0.661700
     12 O            4.5520    -0.3100    -5.0220 o          1 21V      -0.622100
     13 C11          3.9620    -2.5680    -5.1240 ca         1 21V      -0.102600
     14 C12          3.5830    -3.7120    -4.4180 ca         1 21V      -0.085500
     15 C13          3.3370    -4.8870    -5.0970 ca         1 21V      -0.142000
     16 C16          4.0860    -2.6230    -6.5130 ca         1 21V      -0.085500
     17 C15          3.8380    -3.8050    -7.1800 ca         1 21V      -0.142000
     18 C14          3.4670    -4.9350    -6.4730 ca         1 21V      -0.103300
     19 C10          3.1990    -6.2240    -7.2070 c3         1 21V      -0.032100
     20 C9           1.7210    -6.2880    -7.6000 c3         1 21V      -0.073400
     21 C6           1.4490    -7.5970    -8.3470 c3         1 21V      -0.098700
     22 C7           2.2210    -7.6050    -9.6730 c3         1 21V       0.237800
     23 N8           1.9650    -8.8910   -10.3320 nu         1 21V      -0.809000
     24 C5          -0.0450    -7.7130    -8.6500 c3         1 21V       0.000800
     25 C4A         -0.3020    -8.8580    -9.5900 cc         1 21V      -0.320400
     26 C4          -1.5990    -9.4100    -9.6690 c          1 21V       0.711700
     27 O4          -2.5000    -8.9610    -8.9740 o          1 21V      -0.519100
     28 C8A          0.6800    -9.3820   -10.3730 cd         1 21V       0.379000
     29 N1           0.3810   -10.4210   -11.2160 na         1 21V      -0.717000
     30 C2          -0.8830   -10.9220   -11.2650 cd         1 21V       0.668100
     31 N3          -1.8400   -10.4270   -10.5110 nc         1 21V      -0.672100
     32 NA2         -1.1640   -11.9600   -12.1140 nz         1 21V      -0.760600
     33 H2           1.8350    -0.8870    -1.8720 hc         1 21V       0.032200
     34 H3           1.8350     0.8820    -1.8740 hc         1 21V       0.032200
     35 H4           3.8620     0.8840    -0.4580 hc         1 21V       0.068700
     36 H5           3.8620    -0.8850    -0.4550 hc         1 21V       0.068700
     37 H6           4.0390     0.8330    -2.9560 h1         1 21V       0.079700
     38 H8           3.8690    -2.0830    -2.5520 hn         1 21V       0.306500
     39 H9           3.4800    -3.6750    -3.3410 ha         1 21V       0.153000
     40 H10          3.0440    -5.7760    -4.5510 ha         1 21V       0.116500
     41 H11          4.3770    -1.7390    -7.0670 ha         1 21V       0.153000
     42 H12          3.9370    -3.8490    -8.2580 ha         1 21V       0.116500
     43 H13          3.4390    -7.0630    -6.5650 hc         1 21V       0.037200
     44 H14          3.8120    -6.2660    -8.0990 hc         1 21V       0.037200
     45 H15          1.4820    -5.4500    -8.2430 hc         1 21V       0.061700
     46 H16          1.1080    -6.2470    -6.7080 hc         1 21V       0.061700
     47 H17          1.7620    -8.4390    -7.7410 hc         1 21V       0.064700
     48 H18          1.8740    -6.7950   -10.3030 h1         1 21V       0.066200
     49 H19          3.2820    -7.4980    -9.4790 h1         1 21V       0.066200
     50 H20         -0.5840    -7.8820    -7.7260 hc         1 21V       0.077700
     51 H21         -0.3890    -6.7920    -9.1070 hc         1 21V       0.077700
     52 H24         -2.1290   -12.2120   -12.0260 hn         1 21V       0.421133
     53 H25         -0.5910   -12.7460   -11.8800 hn         1 21V       0.421133
     54 H26          2.7170    -9.4060   -10.7480 hn         1 21V       0.435800
     55 H22          1.0960   -10.8120   -11.7980 hn         1 21V       0.438800
     56 HA23        -0.9780   -11.6800   -13.0570 hn         1 21V       0.421133
@<TRIPOS>BOND
     1    32    30 1
     2    31    30 2
     3    31    26 1
     4    27    26 2
     5    30    29 1
     6    26    25 1
     7    29    28 1
     8    25    28 2
     9    25    24 1
    10    28    23 1
    11    24    21 1
    12    23    22 1
    13     3     2 1
    14     1     2 1
    15     2     4 1
    16    21    22 1
    17    21    20 1
    18    20    19 1
    19     4     5 1
    20    15    14 ar
    21    15    18 ar
    22     5     6 1
    23    14    13 ar
    24    19    18 1
    25    18    17 ar
    26    13    11 1
    27    13    16 ar
    28    11    12 2
    29    11    10 1
    30    17    16 ar
    31    10     6 1
    32     6     7 1
    33     8     7 1
    34     7     9 1
    35     4    33 1
    36     4    34 1
    37     5    35 1
    38     5    36 1
    39     6    37 1
    40    10    38 1
    41    14    39 1
    42    15    40 1
    43    16    41 1
    44    17    42 1
    45    19    43 1
    46    19    44 1
    47    20    45 1
    48    20    46 1
    49    21    47 1
    50    22    48 1
    51    22    49 1
    52    24    50 1
    53    24    51 1
    54    32    52 1
    55    32    53 1
    56    23    54 1
    57    29    55 1
    58    56    32 1
@<TRIPOS>SUBSTRUCTURE
     1 21V         1 TEMP              0 ****  ****    0 ROOT
