@<TRIPOS>MOLECULE
21V
   57    59     1     0     0
SMALL
bcc


@<TRIPOS>ATOM
      1 OE2        -0.3040   -5.2590   -3.2910 o         1 21V     -0.582000
      2 CD          0.5590   -5.2330   -2.4000 c         1 21V      0.685100
      3 OE1         0.6900   -6.4490   -1.7880 oh        1 21V     -0.634100
      4 CG          1.3090   -4.0320   -1.9210 c3        1 21V     -0.158400
      5 CB          2.8160   -4.1690   -1.9280 c3        1 21V     -0.063400
      6 CA          3.4840   -4.3050   -3.3010 c3        1 21V     -0.014300
      7 CT          3.2800   -5.7230   -3.8820 c         1 21V      0.904600
      8 O1          2.5230   -6.5600   -3.2810 o         1 21V     -0.874800
      9 O2          3.8280   -6.0360   -4.9750 o         1 21V     -0.874800
     10 N           3.0530   -3.2970   -4.2520 n         1 21V     -0.523900
     11 C           4.0110   -2.6560   -5.0550 c         1 21V      0.668700
     12 O           5.1120   -2.3070   -4.5960 o         1 21V     -0.572100
     13 C11         3.6350   -2.4440   -6.4840 ca        1 21V     -0.147600
     14 C12         2.3250   -2.1510   -6.8770 ca        1 21V     -0.091500
     15 C13         1.9620   -2.2680   -8.2160 ca        1 21V     -0.141500
     16 C16         4.6100   -2.6940   -7.4580 ca        1 21V     -0.091500
     17 C15         4.2420   -2.8110   -8.7970 ca        1 21V     -0.141500
     18 C14         2.8990   -2.6850   -9.1720 ca        1 21V     -0.059300
     19 C10         2.4420   -3.0790  -10.5340 c3        1 21V     -0.041100
     20 C9          2.3560   -4.5920  -10.7370 c3        1 21V     -0.062400
     21 C6          2.1070   -5.3820   -9.4650 c3        1 21V     -0.096700
     22 C7          3.4050   -6.0550   -8.9870 c3        1 21V      0.195800
     23 N8          3.2560   -6.8360   -7.7760 nh        1 21V     -0.726000
     24 C5          1.0410   -6.4670   -9.5920 c3        1 21V      0.003800
     25 C4A         0.8750   -7.1050   -8.2590 cc        1 21V     -0.357400
     26 C4         -0.4410   -7.5700   -7.8460 c         1 21V      0.728700
     27 O4         -1.4150   -7.7090   -8.6010 o         1 21V     -0.536100
     28 C8A         1.9600   -7.1600   -7.3800 cd        1 21V      0.392000
     29 N1          1.7590   -7.6280   -6.0590 na        1 21V     -0.710000
     30 C2          0.4250   -7.7770   -5.6610 cc        1 21V      0.728100
     31 N3         -0.6270   -7.8440   -6.4460 nd        1 21V     -0.676100
     32 NA2         0.1860   -7.9060   -4.1880 n4        1 21V     -0.827600
     33 H2          0.9940   -3.1530   -2.5460 hc        1 21V      0.084200
     34 H3          0.9700   -3.8350   -0.8660 hc        1 21V      0.084200
     35 H4          3.2360   -3.2590   -1.4210 hc        1 21V      0.059200
     36 H5          3.1190   -5.0700   -1.3300 hc        1 21V      0.059200
     37 H6          4.6000   -4.1820   -3.1350 h1        1 21V      0.102700
     38 H8          2.2180   -3.5580   -4.7350 hn        1 21V      0.284500
     39 H9          1.5720   -1.8470   -6.1340 ha        1 21V      0.149500
     40 H10         0.9220   -2.0720   -8.5180 ha        1 21V      0.139000
     41 H11         5.6590   -2.8330   -7.1480 ha        1 21V      0.149500
     42 H12         5.0040   -3.0400   -9.5570 ha        1 21V      0.139000
     43 H13         3.1400   -2.6540  -11.3040 hc        1 21V      0.052700
     44 H14         1.4290   -2.6310  -10.7270 hc        1 21V      0.052700
     45 H15         3.3070   -4.9440  -11.2180 hc        1 21V      0.047700
     46 H16         1.5280   -4.7970  -11.4680 hc        1 21V      0.047700
     47 H17         1.7500   -4.6770   -8.6600 hc        1 21V      0.068700
     48 H18         4.1910   -5.2650   -8.8160 h1        1 21V      0.059700
     49 H19         3.7740   -6.7560   -9.7900 h1        1 21V      0.059700
     50 H20         0.0650   -6.0250   -9.9230 hc        1 21V      0.063200
     51 H21         1.3440   -7.2280  -10.3580 hc        1 21V      0.063200
     52 H24         1.0610   -7.7260   -3.6420 hn        1 21V      0.491133
     53 H25        -0.4960   -7.1760   -3.8990 hn        1 21V      0.491133
     54 H26         3.9110   -6.6180   -7.0440 hn        1 21V      0.465800
     55 H22         2.5000   -7.4880   -5.3730 hn        1 21V      0.521800
     56 H23         1.5710   -6.5170   -1.3830 ho        1 21V      0.473000
     57 HA23       -0.1840   -8.8320   -3.9780 hn        1 21V      0.491133
@<TRIPOS>BOND
     1    1    2 2   
     2    2    3 1   
     3    2    4 1   
     4    3   56 1   
     5    4    5 1   
     6    4   33 1   
     7    4   34 1   
     8    5    6 1   
     9    5   35 1   
    10    5   36 1   
    11    6    7 1   
    12    6   10 1   
    13    6   37 1   
    14    7    8 1   
    15    7    9 1   
    16   10   11 1   
    17   10   38 1   
    18   11   12 2   
    19   11   13 1   
    20   13   14 ar  
    21   13   16 ar  
    22   14   15 ar  
    23   14   39 1   
    24   15   18 ar  
    25   15   40 1   
    26   16   17 ar  
    27   16   41 1   
    28   17   18 ar  
    29   17   42 1   
    30   18   19 1   
    31   19   20 1   
    32   19   43 1   
    33   19   44 1   
    34   20   21 1   
    35   20   45 1   
    36   20   46 1   
    37   21   22 1   
    38   21   24 1   
    39   21   47 1   
    40   22   23 1   
    41   22   48 1   
    42   22   49 1   
    43   23   28 1   
    44   23   54 1   
    45   24   25 1   
    46   24   50 1   
    47   24   51 1   
    48   25   26 1   
    49   25   28 2   
    50   26   27 2   
    51   26   31 1   
    52   28   29 1   
    53   29   30 1   
    54   29   55 1   
    55   30   31 2   
    56   30   32 1   
    57   32   52 1   
    58   32   53 1   
    59   32   57 1   
@<TRIPOS>SUBSTRUCTURE
     1 21V         1 TEMP              0 ****  ****    0 ROOT
