@<TRIPOS>MOLECULE
molecule
   46    49     1     0     0
SMALL
bcc


@<TRIPOS>ATOM
      1 C2           0.0000     0.0000     0.0000 ca         1 21W      -0.113000
      2 C4           0.0010     0.0020     2.3940 ca         1 21W      -0.113000
      3 C1           1.3820     0.0000     0.0000 ca         1 21W      -0.117500
      4 C5           1.3830     0.0020     2.3940 ca         1 21W      -0.117500
      5 C13          6.7070     4.8200     1.8530 cc         1 21W      -0.276600
      6 C12          6.5890     4.8170     0.5120 cd         1 21W       0.313200
      7 C20         -3.6900    -4.0740     1.2000 cc         1 21W      -0.121100
      8 C23         -5.9220    -3.3520     1.2000 cd         1 21W      -0.204600
      9 C19         -4.5030    -3.0100     1.1990 cd         1 21W      -0.092600
     10 C3          -0.6910     0.0010     1.1980 ca         1 21W      -0.115300
     11 C6           2.0740     0.0000     1.1980 ca         1 21W      -0.079300
     12 C22         -6.1100    -4.7280     1.1900 cc         1 21W       0.240300
     13 C10          6.0060     2.8550     1.1940 cc         1 21W       0.397800
     14 C27         -8.4080    -4.4480     1.1810 cd         1 21W       0.511800
     15 C24         -7.0770    -2.5160     1.1980 c          1 21W       0.700100
     16 C17         -4.0120    -1.6240     1.1990 c          1 21W       0.665700
     17 C15         -2.1980     0.0030     1.1980 c3         1 21W       0.164300
     18 C7           3.5800    -0.0010     1.1970 c3         1 21W       0.203100
     19 C9           5.5400     1.4210     1.1950 c3         1 21W       0.145500
     20 N14          6.3410     3.5740     2.2860 na         1 21W      -0.280900
     21 N28         -7.3660    -5.2250     1.1810 nc         1 21W      -0.635100
     22 N11          6.1560     3.6040     0.1350 nd         1 21W      -0.698000
     23 N26         -8.2950    -3.0960     1.1980 ns         1 21W      -0.467400
     24 N16         -2.6880    -1.3790     1.1980 ns         1 21W      -0.587900
     25 N8           4.0720     1.3840     1.1960 n7         1 21W      -0.817200
     26 O25         -6.9660    -1.3020     1.1980 o          1 21W      -0.563500
     27 O18         -4.8030    -0.6990     1.1990 o          1 21W      -0.549100
     28 S21         -4.5520    -5.5400     1.1940 ss         1 21W      -0.010800
     29 H1          -0.5420    -0.0010    -0.9380 ha         1 21W       0.137000
     30 H2          -0.5410     0.0030     3.3320 ha         1 21W       0.137000
     31 H3           1.9240    -0.0010    -0.9380 ha         1 21W       0.134500
     32 H4           1.9250     0.0030     3.3320 ha         1 21W       0.134500
     33 H6           6.8010     5.6490    -0.1480 h4         1 21W       0.041100
     34 H7          -2.6080    -4.0080     1.2040 h4         1 21W       0.175000
     35 H8          -9.3960    -4.8930     1.1810 h5         1 21W       0.060800
     36 H9          -2.5580     0.5140     2.0830 h1         1 21W       0.061700
     37 H10         -2.5590     0.5140     0.3140 h1         1 21W       0.061700
     38 H11          3.9410    -0.5110     2.0820 h1         1 21W       0.038200
     39 H12          3.9410    -0.5130     0.3130 h1         1 21W       0.038200
     40 H13          5.9150     0.9210     2.0800 h1         1 21W       0.048700
     41 H14          5.9140     0.9190     0.3110 h1         1 21W       0.048700
     42 H15          6.3210     3.2580     3.2350 hn         1 21W       0.300700
     43 H17         -9.1180    -2.5270     1.1990 hn         1 21W       0.341500
     44 H18         -2.0370    -2.1390     1.1970 hn         1 21W       0.311500
     45 H19          3.7260     1.8600     0.3870 hn         1 21W       0.375800
     46 H5           7.0330     5.6490     2.4700 h4         1 21W       0.174000
@<TRIPOS>BOND
     1    28     7 1   
     2    28    12 1   
     3     7     9 2   
     4    12    21 1   
     5    12     8 2   
     6    21    14 2   
     7    27    16 2   
     8     9     8 1   
     9     9    16 1   
    10     8    15 1   
    11    16    24 1   
    12    14    23 1   
    13    15    23 1   
    14    15    26 2   
    15    24    17 1   
    16    17    10 1   
    17     1    10 ar  
    18     1     3 ar  
    19    10     2 ar  
    20     3    11 ar  
    21     2     4 ar  
    22    11     4 ar  
    23    11    18 1   
    24    18    25 1   
    25    25    19 1   
    26    19    13 1   
    27    22    13 2   
    28    22     6 1   
    29    13    20 1   
    30     6     5 2   
    31    20     5 1   
    32     1    29 1   
    33     2    30 1   
    34     3    31 1   
    35     4    32 1   
    36     5    46 1   
    37     6    33 1   
    38     7    34 1   
    39    14    35 1   
    40    17    36 1   
    41    17    37 1   
    42    18    38 1   
    43    18    39 1   
    44    19    40 1   
    45    19    41 1   
    46    20    42 1   
    47    23    43 1   
    48    24    44 1   
    49    25    45 1   
@<TRIPOS>SUBSTRUCTURE
     1 21W         1 TEMP              0 ****  ****    0 ROOT
