@<TRIPOS>MOLECULE
21X
   37    39     1     0     0
SMALL
bcc


@<TRIPOS>ATOM
      1 C1           0.0000     0.0000     0.0000 ca         1 21X      -0.068000
      2 C5          -0.0010     0.0050     2.3940 ca         1 21X      -0.068000
      3 C2           1.3820     0.0000     0.0000 ca         1 21X      -0.067000
      4 C4           1.3810    -0.0010     2.3950 ca         1 21X      -0.067000
      5 C14          5.0510    -4.0890     1.1870 cc         1 21X      -0.043100
      6 C17          7.2890    -3.3780     1.1910 cd         1 21X      -0.214600
      7 C13          5.8710    -3.0300     1.1910 cd         1 21X      -0.087600
      8 C6          -0.6920     0.0050     1.1970 ca         1 21X      -0.216300
      9 C3           2.0730     0.0000     1.1980 ca         1 21X      -0.057300
     10 C16          7.4700    -4.7540     1.1960 cc         1 21X       0.275300
     11 C21          9.7690    -4.4860     1.2080 cd         1 21X       0.348800
     12 C18          8.4470    -2.5470     1.1950 c          1 21X       0.603100
     13 C11          5.3860    -1.6410     1.1950 c          1 21X       0.586700
     14 C7          -2.1990     0.0110     1.1960 c3         1 21X       0.039100
     15 C9           3.5800    -0.0060     1.1980 c3         1 21X       0.107300
     16 N22          8.7230    -5.2580     1.2050 nc         1 21X      -0.516100
     17 N20          9.6610    -3.1330     1.1930 ns         1 21X       0.007600
     18 N8          -2.6830     1.3980     1.1920 nz         1 21X       0.075400
     19 N10          4.0630    -1.3890     1.1950 ns         1 21X      -0.226900
     20 O19          8.3420    -1.3330     1.1980 o          1 21X      -0.606500
     21 O12          6.1810    -0.7200     1.1970 o          1 21X      -0.562100
     22 S15          5.9080    -5.5590     1.1910 ss         1 21X      -0.164800
     23 H1          -0.5410    -0.0000    -0.9380 ha         1 21X       0.110000
     24 H2          -0.5430     0.0060     3.3320 ha         1 21X       0.110000
     25 H3           1.9240    -0.0020    -0.9380 ha         1 21X       0.133000
     26 H4           1.9230    -0.0010     3.3340 ha         1 21X       0.133000
     27 H6          10.7550    -4.9350     1.2070 h5         1 21X       0.013800
     28 H7          -2.5610    -0.5000     0.3130 hx         1 21X       0.081700
     29 H8          -2.5620    -0.4960     2.0810 hx         1 21X       0.081700
     30 H9           3.9430     0.5050     0.3150 h1         1 21X       0.039700
     31 H10          3.9430     0.5010     2.0840 h1         1 21X       0.039700
     32 H11         10.4870    -2.5680     1.1950 hn         1 21X       0.189500
     33 H12         -2.3480     1.8660     0.3740 hn         1 21X       0.223133
     34 H13         -2.3490     1.8700     2.0080 hn         1 21X       0.223133
     35 H15          3.4090    -2.1480     1.1930 hn         1 21X       0.175500
     36 H83         -3.6840     1.4010     1.1920 hn         1 21X       0.223133
     37 H5           3.9700    -4.0180     1.1830 h4         1 21X       0.146000
@<TRIPOS>BOND
     1     1     3 ar  
     2     1     8 ar  
     3     1    23 1   
     4     2     4 ar  
     5     2     8 ar  
     6     2    24 1   
     7     3     9 ar  
     8     3    25 1   
     9     4     9 ar  
    10     4    26 1   
    11     5     7 2   
    12     5    22 1   
    13     5    37 1   
    14     6     7 1   
    15     6    10 2   
    16     6    12 1   
    17     7    13 1   
    18     8    14 1   
    19     9    15 1   
    20    10    16 1   
    21    10    22 1   
    22    11    16 2   
    23    11    17 1   
    24    11    27 1   
    25    12    17 1   
    26    12    20 2   
    27    13    19 1   
    28    13    21 2   
    29    14    18 1   
    30    14    28 1   
    31    14    29 1   
    32    15    19 1   
    33    15    30 1   
    34    15    31 1   
    35    17    32 1   
    36    18    33 1   
    37    18    34 1   
    38    18    36 1   
    39    19    35 1   
@<TRIPOS>SUBSTRUCTURE
     1 21X         1 TEMP              0 ****  ****    0 ROOT
