@<TRIPOS>MOLECULE
molecule
   45    46     1     0     0
SMALL
bcc


@<TRIPOS>ATOM
      1 C17          0.0000     0.0000     0.0000 c3         1 21Y       0.086500
      2 C20         -1.7880     3.0900     1.4060 c3         1 21Y      -0.158400
      3 C21         -2.7340     4.0360     0.6620 c3         1 21Y      -0.077100
      4 C24          1.5330     1.0580     2.2980 c3         1 21Y       0.085000
      5 O01          3.2290    -0.9420     2.9830 o          1 21Y      -0.605100
      6 C02          2.8490    -0.9530     1.8320 c          1 21Y       0.658100
      7 C03          3.3210    -2.0320     0.8920 c3         1 21Y       0.163800
      8 N04          4.2250    -2.9380     1.6050 nu         1 21Y      -0.808600
      9 C05          4.7970    -4.0270     0.9340 ca         1 21Y       0.198600
     10 C06          4.5080    -4.2490    -0.4050 ca         1 21Y      -0.183000
     11 C07          5.0730    -5.3250    -1.0650 ca         1 21Y       0.045400
     12 Cl1          4.7110    -5.6000    -2.7400 cl         1 21Y      -0.091400
     13 C09          5.9270    -6.1820    -0.3930 ca         1 21Y       0.010400
     14 Cl2          6.6350    -7.5300    -1.2260 cl         1 21Y      -0.093400
     15 C11          6.2200    -5.9650     0.9430 ca         1 21Y      -0.165000
     16 C12          5.6610    -4.8870     1.6090 ca         1 21Y       0.082100
     17 O13          5.9470    -4.6730     2.9210 os         1 21Y      -0.328900
     18 C14          6.8330    -5.6020     3.5510 c3         1 21Y       0.129700
     19 N15          2.0030     0.0000     1.3930 n          1 21Y      -0.490800
     20 C16          1.5340     0.0000     0.0000 c3         1 21Y       0.085000
     21 N18         -0.4700     1.0580     0.9050 n          1 21Y      -0.497800
     22 C19         -1.3160     2.0110     0.4660 c          1 21Y       0.663100
     23 O22         -1.6970     2.0000    -0.6850 o          1 21Y      -0.605100
     24 C23          0.0000     1.0590     2.2980 c3         1 21Y       0.086500
     25 H171        -0.3630     0.1930    -1.0020 h1         1 21Y       0.066200
     26 H172        -0.3630    -0.9600     0.3460 h1         1 21Y       0.066200
     27 H201        -0.9240     3.6420     1.7530 hc         1 21Y       0.058700
     28 H202        -2.3050     2.6570     2.2550 hc         1 21Y       0.058700
     29 H213        -3.0740     4.8120     1.3370 hc         1 21Y       0.045033
     30 H212        -3.5860     3.4780     0.2940 hc         1 21Y       0.045033
     31 H1          -2.2100     4.4870    -0.1720 hc         1 21Y       0.045033
     32 H241         1.8960     2.0190     1.9530 h1         1 21Y       0.065700
     33 H242         1.8950     0.8650     3.3010 h1         1 21Y       0.065700
     34 H031         3.8460    -1.5800     0.0590 h1         1 21Y       0.057700
     35 H032         2.4690    -2.5880     0.5230 h1         1 21Y       0.057700
     36 H041         4.4340    -2.7800     2.5700 hn         1 21Y       0.479800
     37 H061         3.8490    -3.5730    -0.9360 ha         1 21Y       0.149000
     38 H111         6.8900    -6.6360     1.4670 ha         1 21Y       0.155000
     39 H143         6.9750    -5.3190     4.5870 h1         1 21Y       0.044367
     40 H141         7.7890    -5.5930     3.0400 h1         1 21Y       0.044367
     41 H142         6.4080    -6.5970     3.5030 h1         1 21Y       0.044367
     42 H162         1.8960     0.8870    -0.5050 h1         1 21Y       0.065700
     43 H161         1.8960    -0.8870    -0.5050 h1         1 21Y       0.065700
     44 H232        -0.3620     1.9460     2.8030 h1         1 21Y       0.066200
     45 H231        -0.3630     0.1720     2.8040 h1         1 21Y       0.066200
@<TRIPOS>BOND
     1    18    17 1   
     2    17    16 1   
     3    15    16 ar  
     4    15    13 ar  
     5    16     9 ar  
     6    14    13 1   
     7    13    11 ar  
     8     9     8 1   
     9     9    10 ar  
    10     8     7 1   
    11    11    10 ar  
    12    11    12 1   
    13     7     6 1   
    14     5     6 2   
    15     6    19 1   
    16    19     4 1   
    17    19    20 1   
    18     4    24 1   
    19    20     1 1   
    20    24    21 1   
    21     1    21 1   
    22    21    22 1   
    23    22    23 2   
    24    22     2 1   
    25     3     2 1   
    26     1    25 1   
    27     1    26 1   
    28     2    27 1   
    29     2    28 1   
    30     3    29 1   
    31     3    30 1   
    32     3    31 1   
    33     4    32 1   
    34     4    33 1   
    35     7    34 1   
    36     7    35 1   
    37     8    36 1   
    38    10    37 1   
    39    15    38 1   
    40    18    39 1   
    41    18    40 1   
    42    18    41 1   
    43    20    42 1   
    44    20    43 1   
    45    24    44 1   
    46    24    45 1   
@<TRIPOS>SUBSTRUCTURE
     1 21Y         1 TEMP              0 ****  ****    0 ROOT
