@<TRIPOS>MOLECULE
21Y
   45    46     1     0     0
SMALL
bcc


@<TRIPOS>ATOM
      1 C17          0.0000     0.0000     0.0000 c3         1 21Y       0.032000
      2 C20         -1.7880     3.0900     1.4060 c3         1 21Y      -0.101400
      3 C21         -2.7340     4.0360     0.6620 c3         1 21Y       0.021900
      4 C24          1.5330     1.0580     2.2980 c3         1 21Y       0.029500
      5 O01          3.2290    -0.9420     2.9830 o          1 21Y      -0.642100
      6 C02          2.8490    -0.9530     1.8320 c          1 21Y       0.587100
      7 C03          3.3210    -2.0320     0.8920 c3         1 21Y       0.090800
      8 N04          4.2250    -2.9380     1.6050 nu         1 21Y      -0.410600
      9 C05          4.7970    -4.0270     0.9340 ca         1 21Y       0.051600
     10 C06          4.5080    -4.2490    -0.4050 ca         1 21Y      -0.170000
     11 C07          5.0730    -5.3250    -1.0650 ca         1 21Y      -0.018600
     12 Cl1          4.7110    -5.6000    -2.7400 cl         1 21Y      -0.015400
     13 C09          5.9270    -6.1820    -0.3930 ca         1 21Y      -0.055600
     14 Cl2          6.6350    -7.5300    -1.2260 cl         1 21Y      -0.015400
     15 C11          6.2200    -5.9650     0.9430 ca         1 21Y      -0.153000
     16 C12          5.6610    -4.8870     1.6090 ca         1 21Y       0.091100
     17 O13          5.9470    -4.6730     2.9210 os         1 21Y      -0.308900
     18 C14          6.8330    -5.6020     3.5510 c3         1 21Y       0.247700
     19 N15          2.0030     0.0000     1.3930 n          1 21Y      -0.152800
     20 C16          1.5340     0.0000     0.0000 c3         1 21Y       0.029500
     21 N18         -0.4700     1.0580     0.9050 n          1 21Y      -0.168800
     22 C19         -1.3160     2.0110     0.4660 c          1 21Y       0.591100
     23 O22         -1.6970     2.0000    -0.6850 o          1 21Y      -0.640100
     24 C23          0.0000     1.0590     2.2980 c3         1 21Y       0.032000
     25 H171        -0.3630     0.1930    -1.0020 h1         1 21Y       0.039450
     26 H172        -0.3630    -0.9600     0.3460 h1         1 21Y       0.039450
     27 H201        -0.9240     3.6420     1.7530 hc         1 21Y       0.027700
     28 H202        -2.3050     2.6570     2.2550 hc         1 21Y       0.027700
     29 H213        -3.0740     4.8120     1.3370 hc         1 21Y       0.009700
     30 H212        -3.5860     3.4780     0.2940 hc         1 21Y       0.009700
     31 H1          -2.2100     4.4870    -0.1720 hc         1 21Y       0.009700
     32 H241         1.8960     2.0190     1.9530 h1         1 21Y       0.039450
     33 H242         1.8950     0.8650     3.3010 h1         1 21Y       0.039450
     34 H031         3.8460    -1.5800     0.0590 h1         1 21Y       0.029700
     35 H032         2.4690    -2.5880     0.5230 h1         1 21Y       0.029700
     36 H041         4.4340    -2.7800     2.5700 hn         1 21Y       0.334800
     37 H061         3.8490    -3.5730    -0.9360 ha         1 21Y       0.124000
     38 H111         6.8900    -6.6360     1.4670 ha         1 21Y       0.132000
     39 H143         6.9750    -5.3190     4.5870 h1         1 21Y      -0.000633
     40 H141         7.7890    -5.5930     3.0400 h1         1 21Y      -0.000633
     41 H142         6.4080    -6.5970     3.5030 h1         1 21Y      -0.000633
     42 H162         1.8960     0.8870    -0.5050 h1         1 21Y       0.039450
     43 H161         1.8960    -0.8870    -0.5050 h1         1 21Y       0.039450
     44 H232        -0.3620     1.9460     2.8030 h1         1 21Y       0.039450
     45 H231        -0.3630     0.1720     2.8040 h1         1 21Y       0.039450
@<TRIPOS>BOND
     1     1    20 1   
     2     1    21 1   
     3     1    25 1   
     4     1    26 1   
     5     2     3 1   
     6     2    22 1   
     7     2    27 1   
     8     2    28 1   
     9     3    29 1   
    10     3    30 1   
    11     3    31 1   
    12     4    19 1   
    13     4    24 1   
    14     4    32 1   
    15     4    33 1   
    16     5     6 2   
    17     6     7 1   
    18     6    19 1   
    19     7     8 1   
    20     7    34 1   
    21     7    35 1   
    22     8     9 1   
    23     8    36 1   
    24     9    10 ar  
    25     9    16 ar  
    26    10    11 ar  
    27    10    37 1   
    28    11    12 1   
    29    11    13 ar  
    30    13    14 1   
    31    13    15 ar  
    32    15    16 ar  
    33    15    38 1   
    34    16    17 1   
    35    17    18 1   
    36    18    39 1   
    37    18    40 1   
    38    18    41 1   
    39    19    20 1   
    40    20    42 1   
    41    20    43 1   
    42    21    22 1   
    43    21    24 1   
    44    22    23 2   
    45    24    44 1   
    46    24    45 1   
@<TRIPOS>SUBSTRUCTURE
     1 21Y         1 TEMP              0 ****  ****    0 ROOT
