@<TRIPOS>MOLECULE
molecule
   40    42     1     0     0
SMALL
bcc


@<TRIPOS>ATOM
      1 N01          0.0000     0.0000     0.0000 nc         1 21Z      -0.802000
      2 N02         -1.9640     0.0010     1.3300 nu         1 21Z      -0.744300
      3 N03          2.0710    -0.0010    -1.1590 nv         1 21Z      -1.022500
      4 N04         -7.5530     0.2460    -0.1910 nz         1 21Z      -0.806500
      5 C05          1.8660     0.0000     1.2670 cd         1 21Z      -0.295000
      6 C06          1.3120     0.0000     0.0000 cc         1 21Z       0.746200
      7 C07         -0.5980     0.0020     1.1560 cd         1 21Z       0.683300
      8 C08          3.2390    -0.0000     1.5740 c          1 21Z       0.630300
      9 C09         -2.8090     0.1410     0.2250 ca         1 21Z       0.174600
     10 C10          3.6830    -0.1480     2.9780 ca         1 21Z      -0.169600
     11 C11         -4.0930    -0.3920     0.2580 ca         1 21Z      -0.098000
     12 C12         -4.9240    -0.2520    -0.8350 ca         1 21Z      -0.310500
     13 C13         -4.4820     0.4170    -1.9620 ca         1 21Z      -0.058000
     14 C14         -3.2060     0.9470    -1.9980 ca         1 21Z      -0.108000
     15 C15         -2.3700     0.8170    -0.9060 ca         1 21Z      -0.040000
     16 C16          4.9080     0.3850     3.3850 ca         1 21Z      -0.091000
     17 C17          5.3170     0.2450     4.6950 ca         1 21Z      -0.131500
     18 C18          4.5160    -0.4240     5.6050 ca         1 21Z      -0.099000
     19 C19          3.3020    -0.9540     5.2070 ca         1 21Z      -0.131500
     20 C20          2.8780    -0.8150     3.9020 ca         1 21Z      -0.091000
     21 O21          4.0620     0.1210     0.6830 o          1 21Z      -0.526100
     22 O22         -6.5290    -1.9700     0.1700 o          1 21Z      -0.518800
     23 O23         -6.9370    -1.1270    -2.1470 o          1 21Z      -0.518800
     24 S24          0.5410     0.0010     2.4300 ss         1 21Z      -0.127300
     25 S25         -6.5520    -0.9260    -0.7940 sy         1 21Z       1.221200
     26 HN02        -2.3520    -0.1110     2.2460 hn         1 21Z       0.470800
     27 HN03         2.6990     0.7560    -1.3460 hn         1 21Z       0.456300
     28 HN0A         2.0140    -0.7720    -1.7940 hn         1 21Z       0.456300
     29 HN04        -8.4910    -0.1020    -0.1590 hn         1 21Z       0.491467
     30 HN0B        -7.2580     0.4940     0.7320 hn         1 21Z       0.491467
     31 H11         -4.4400    -0.9150     1.1400 ha         1 21Z       0.152000
     32 H13         -5.1350     0.5230    -2.8190 ha         1 21Z       0.154000
     33 H14         -2.8630     1.4730    -2.8810 ha         1 21Z       0.168000
     34 H15         -1.3700     1.2340    -0.9350 ha         1 21Z       0.202000
     35 H16          5.5350     0.9080     2.6730 ha         1 21Z       0.141500
     36 H17          6.2670     0.6580     5.0120 ha         1 21Z       0.139000
     37 H18          4.8430    -0.5340     6.6320 ha         1 21Z       0.139000
     38 H19          2.6790    -1.4740     5.9250 ha         1 21Z       0.139000
     39 H20          1.9270    -1.2310     3.5930 ha         1 21Z       0.141500
     40 H043        -7.5110     1.0550    -0.7790 hn         1 21Z       0.491467
@<TRIPOS>BOND
     1     7     1 2   
     2     1     6 1   
     3     9     2 1   
     4     2     7 1   
     5     2    26 1   
     6     6     3 1   
     7     3    27 1   
     8     3    28 1   
     9    25     4 1   
    10     4    29 1   
    11     4    30 1   
    12    24     5 1   
    13     5     8 1   
    14     5     6 2   
    15    24     7 1   
    16    10     8 1   
    17     8    21 2   
    18    15     9 ar  
    19    11     9 ar  
    20    16    10 ar  
    21    20    10 ar  
    22    12    11 ar  
    23    11    31 1   
    24    13    12 ar  
    25    25    12 1   
    26    13    14 ar  
    27    13    32 1   
    28    14    15 ar  
    29    14    33 1   
    30    15    34 1   
    31    17    16 ar  
    32    16    35 1   
    33    18    17 ar  
    34    17    36 1   
    35    18    19 ar  
    36    18    37 1   
    37    19    20 ar  
    38    19    38 1   
    39    20    39 1   
    40    22    25 2   
    41    23    25 2   
    42    40     4 1   
@<TRIPOS>SUBSTRUCTURE
     1 21Z         1 TEMP              0 ****  ****    0 ROOT
