@<TRIPOS>MOLECULE
220
   39    38     1     0     0
SMALL
bcc


@<TRIPOS>ATOM
      1 O1          0.2280    1.5430    0.0460 o         1 220     -0.533100
      2 C1          1.3190    0.9770   -0.0420 c         1 220      0.567900
      3 C2          1.9810    0.2440    1.0810 c3        1 220     -0.210400
      4 C3          1.1780    0.2770    2.3610 c3        1 220     -0.071400
      5 C4          1.8490   -0.5470    3.4410 c3        1 220     -0.065200
      6 C5          1.0620   -0.5650    4.6960 c2        1 220     -0.080200
      7 C6          1.3240   -1.3630    5.7470 ce        1 220     -0.237400
      8 C7          2.4530   -2.3310    5.7910 c3        1 220     -0.029200
      9 C8          2.0030   -3.7210    5.3640 c3        1 220     -0.063200
     10 C9          3.1010   -4.7020    5.5140 c2        1 220     -0.081200
     11 C10         3.6350   -5.4470    4.5290 ce        1 220     -0.230400
     12 C11         3.2050   -5.3860    3.1050 c3        1 220     -0.032200
     13 C12         3.7770   -4.1660    2.4080 c3        1 220     -0.202400
     14 C13         3.2700   -4.0560    1.0040 c         1 220      0.572900
     15 O2          2.9180   -2.9860    0.5040 o         1 220     -0.547100
     16 C14         4.7130   -6.4040    4.8550 c         1 220      0.566100
     17 O3          5.2620   -7.1270    4.0210 o         1 220     -0.529100
     18 C15         0.4670   -1.2900    6.9470 c         1 220      0.567100
     19 O4          0.6300   -1.9950    7.9460 o         1 220     -0.531100
     20 H1          1.8940    0.9760   -0.9970 h4        1 220     -0.005800
     21 H21         2.1470   -0.8220    0.7550 hc        1 220      0.082700
     22 H22         2.9940    0.6990    1.2490 hc        1 220      0.082700
     23 H31         0.1470   -0.1190    2.1620 hc        1 220      0.055200
     24 H32         1.0590    1.3380    2.7030 hc        1 220      0.055200
     25 H41         2.0000   -1.5990    3.0690 hc        1 220      0.061700
     26 H42         2.8710   -0.1280    3.6550 hc        1 220      0.061700
     27 H5          0.2120    0.1410    4.7350 ha        1 220      0.131000
     28 H71         2.8550   -2.3770    6.8400 hc        1 220      0.057700
     29 H72         3.2860   -1.9850    5.1210 hc        1 220      0.057700
     30 H81         1.1470   -4.0430    6.0210 hc        1 220      0.063700
     31 H82         1.6240   -3.6810    4.3090 hc        1 220      0.063700
     32 H9          3.4780   -4.8060    6.5490 ha        1 220      0.130000
     33 H111        3.5490   -6.3150    2.5710 hc        1 220      0.062700
     34 H112        2.0830   -5.3640    3.0460 hc        1 220      0.062700
     35 H121        3.5250   -3.2370    2.9870 hc        1 220      0.074700
     36 H122        4.8980   -4.2450    2.3660 hc        1 220      0.074700
     37 H13         3.2380   -5.0080    0.4270 h4        1 220      0.004200
     38 H14         5.0100   -6.4360    5.9290 h4        1 220     -0.001800
     39 H15        -0.3580   -0.5420    6.8980 h4        1 220     -0.002800
@<TRIPOS>BOND
     1    1    2 2   
     2    2    3 1   
     3    2   20 1   
     4    3    4 1   
     5    3   21 1   
     6    3   22 1   
     7    4    5 1   
     8    4   23 1   
     9    4   24 1   
    10    5    6 1   
    11    5   25 1   
    12    5   26 1   
    13    6    7 2   
    14    6   27 1   
    15    7    8 1   
    16    7   18 1   
    17    8    9 1   
    18    8   28 1   
    19    8   29 1   
    20    9   10 1   
    21    9   30 1   
    22    9   31 1   
    23   10   11 2   
    24   10   32 1   
    25   11   12 1   
    26   11   16 1   
    27   12   13 1   
    28   12   33 1   
    29   12   34 1   
    30   13   14 1   
    31   13   35 1   
    32   13   36 1   
    33   14   15 2   
    34   14   37 1   
    35   16   17 2   
    36   16   38 1   
    37   18   19 2   
    38   18   39 1   
@<TRIPOS>SUBSTRUCTURE
     1 220         1 TEMP              0 ****  ****    0 ROOT
