@<TRIPOS>MOLECULE
molecule
   39    38     1     0     0
SMALL
bcc


@<TRIPOS>ATOM
      1 O1           0.0000     0.0000     0.0000 o          1 220      -0.508100
      2 C1           1.2260     0.0000     0.0000 c          1 220       0.565900
      3 C2           2.0900     0.0000     1.2400 c3         1 220      -0.197400
      4 C3           1.3050    -0.0890     2.5450 c3         1 220      -0.057400
      5 C4           2.2160    -0.0690     3.7800 c3         1 220       0.049800
      6 C5           1.4060    -0.1540     5.0460 c2         1 220      -0.399200
      7 C6           1.4700    -1.1170     5.9840 ce         1 220      -0.108400
      8 C7           2.3980    -2.3040     6.0090 c3         1 220      -0.096200
      9 C8           1.8380    -3.5380     5.2910 c3         1 220       0.062800
     10 C9           2.7890    -4.7040     5.3130 c2         1 220      -0.409200
     11 C10          3.2450    -5.3940     4.2530 ce         1 220      -0.106400
     12 C11          2.9480    -5.1270     2.8000 c3         1 220      -0.082200
     13 C12          3.9630    -4.1930     2.1440 c3         1 220      -0.194400
     14 C13          3.6460    -3.9670     0.6880 c          1 220       0.558900
     15 O2           2.6890    -4.4820     0.1190 o          1 220      -0.510100
     16 C14          4.1860    -6.5050     4.5720 c          1 220       0.567100
     17 O3           4.6900    -7.2240     3.7180 o          1 220      -0.530100
     18 C15          0.5410    -0.9450     7.1380 c          1 220       0.565100
     19 O4           0.4780    -1.7370     8.0710 o          1 220      -0.518100
     20 H1           1.7360     0.0000    -0.9560 h4         1 220      -0.001800
     21 H21          2.7680    -0.8440     1.1870 hc         1 220       0.058700
     22 H22          2.6750     0.9120     1.2520 hc         1 220       0.058700
     23 H31          0.6220     0.7490     2.6010 hc         1 220       0.074200
     24 H32          0.7320    -1.0090     2.5470 hc         1 220       0.074200
     25 H41          2.7890     0.8500     3.7850 hc         1 220       0.027700
     26 H42          2.8950    -0.9120     3.7350 hc         1 220       0.027700
     27 H5           2.4890    -0.1130     5.0340 ha         1 220       0.218000
     28 H71          3.3310    -2.0230     5.5360 hc         1 220       0.064700
     29 H72          2.5980    -2.5650     7.0410 hc         1 220       0.064700
     30 H81          1.6270    -3.2780     4.2610 hc         1 220       0.057200
     31 H82          0.9130    -3.8330     5.7740 hc         1 220       0.057200
     32 H9           2.9910    -3.7810     4.7830 ha         1 220       0.220000
     33 H111         1.9640    -4.6810     2.7220 hc         1 220       0.080700
     34 H112         2.9480    -6.0690     2.2660 hc         1 220       0.080700
     35 H121         4.9510    -4.6290     2.2280 hc         1 220       0.063700
     36 H122         3.9520    -3.2400     2.6600 hc         1 220       0.063700
     37 H13          4.3010    -3.3170     0.1200 h4         1 220      -0.005800
     38 H14          4.4320    -6.6810     5.6130 h4         1 220       0.029200
     39 H15         -0.1060    -0.0760     7.1470 h4         1 220       0.032200
@<TRIPOS>BOND
     1     1     2 2   
     2     2     3 1   
     3     2    20 1   
     4     3     4 1   
     5     3    21 1   
     6     3    22 1   
     7     4     5 1   
     8     4    23 1   
     9     4    24 1   
    10     5     6 1   
    11     5    25 1   
    12     5    26 1   
    13     6     7 2   
    14     6    27 1   
    15     7     8 1   
    16     7    18 1   
    17     8     9 1   
    18     8    28 1   
    19     8    29 1   
    20     9    10 1   
    21     9    30 1   
    22     9    31 1   
    23    10    11 2   
    24    10    32 1   
    25    11    12 1   
    26    11    16 1   
    27    12    13 1   
    28    12    33 1   
    29    12    34 1   
    30    13    14 1   
    31    13    35 1   
    32    13    36 1   
    33    14    15 2   
    34    14    37 1   
    35    16    17 2   
    36    16    38 1   
    37    18    19 2   
    38    18    39 1   
@<TRIPOS>SUBSTRUCTURE
     1 220         1 TEMP              0 ****  ****    0 ROOT
