@<TRIPOS>MOLECULE
molecule
   33    33     1     0     0
SMALL
bcc


@<TRIPOS>ATOM
      1 C1           0.0000     0.0000     0.0000 ca         1 221      -0.061000
      2 C2           1.3940     0.0000     0.0000 ca         1 221      -0.134800
      3 C3           2.0920     0.0000     1.2080 ca         1 221      -0.128000
      4 C4           1.4070    -0.0000     2.4380 ca         1 221       0.168600
      5 C5          -0.0000     0.0000     2.4160 ca         1 221      -0.128000
      6 C6          -0.6980     0.0000     1.2090 ca         1 221      -0.134800
      7 C7           2.1410     0.0010    -1.2910 c3         1 221       0.702700
      8 C8          -2.1890     0.0020     1.2080 c3         1 221       0.702700
      9 N9           2.1000     0.0010     3.6380 nu         1 221      -0.804600
     10 C10          1.5060    -0.1070     4.9620 c3         1 221       0.364600
     11 C11          1.2330    -1.5880     5.3220 c3         1 221      -0.058600
     12 C12          0.5330    -1.7160     6.6730 c          1 221       0.482100
     13 N13         -0.8410    -1.6480     6.5790 nz         1 221      -0.691400
     14 S14          2.6280     0.7210     6.1610 sh         1 221      -0.335900
     15 O15          1.1280    -1.8630     7.7390 o          1 221      -0.327100
     16 C16          2.4480    -2.4280     5.2740 c1         1 221       0.164700
     17 N17          3.4130    -3.0720     5.2410 n1         1 221      -0.214800
     18 F18          1.3300     0.0030    -2.3910 f          1 221      -0.224133
     19 F19          2.9580     1.0850    -1.4500 f          1 221      -0.224133
     20 F20          2.9480    -1.0900    -1.4330 f          1 221      -0.224133
     21 F21         -2.7360     0.0040    -0.0430 f          1 221      -0.224133
     22 F22         -2.7380    -1.0810     1.8340 f          1 221      -0.224133
     23 F23         -2.7130     1.0940     1.8380 f          1 221      -0.224133
     24 H1          -0.5420     0.0000    -0.9380 ha         1 221       0.186000
     25 H3           3.1750    -0.0000     1.2000 ha         1 221       0.134500
     26 H5          -0.5490     0.0000     3.3500 ha         1 221       0.134500
     27 HN9          3.0960     0.0860     3.5900 hn         1 221       0.475800
     28 H11          0.5520    -1.9750     4.5740 hc         1 221       0.097700
     29 H131        -1.1150    -0.7080     6.3690 hn         1 221       0.480800
     30 H132        -1.2500    -1.9280     7.4480 hn         1 221       0.480800
     31 HS           2.2580     1.9880     6.3110 hs         1 221       0.252800
     32 H10          0.5600     0.4220     4.9570 h2         1 221       0.056700
     33 H133        -1.1560    -2.2580     5.8510 hn         1 221       0.480800
@<TRIPOS>BOND
     1     1     2 ar  
     2     1     6 ar  
     3     1    24 1   
     4     2     3 ar  
     5     2     7 1   
     6     3     4 ar  
     7     3    25 1   
     8     4     9 1   
     9     4     5 ar  
    10     5     6 ar  
    11     5    26 1   
    12     6     8 1   
    13     7    19 1   
    14     7    18 1   
    15     7    20 1   
    16     8    22 1   
    17     8    21 1   
    18     8    23 1   
    19     9    10 1   
    20     9    27 1   
    21    10    11 1   
    22    10    14 1   
    23    10    32 1   
    24    11    16 1   
    25    11    12 1   
    26    11    28 1   
    27    12    13 1   
    28    12    15 2   
    29    13    29 1   
    30    13    30 1   
    31    14    31 1   
    32    16    17 3   
    33    33    13 1   
@<TRIPOS>SUBSTRUCTURE
     1 221         1 TEMP              0 ****  ****    0 ROOT
