@<TRIPOS>MOLECULE
222
   56    60     1     0     0
SMALL
bcc


@<TRIPOS>ATOM
      1 C13         0.0210   -0.4120   -0.0260 c         1 222      0.669700
      2 C1         -2.7690    0.6410    0.7210 ca        1 222     -0.094000
      3 C2         -1.9430   -0.2270    1.4630 ca        1 222      0.064600
      4 C3         -2.5370   -1.1360    2.3640 ca        1 222      0.032400
      5 C4         -3.9270   -1.1580    2.5210 ca        1 222     -0.128000
      6 C5         -4.7290   -0.2920    1.7830 ca        1 222     -0.118000
      7 C6         -4.1500    0.6000    0.8820 ca        1 222     -0.124000
      8 C14         1.4860   -0.3430   -0.1210 cc        1 222     -0.211200
      9 N11        -0.5160   -0.1750    1.2780 n         1 222     -0.111000
     10 CL1        -1.6050   -2.2320    3.2670 cl        1 222     -0.077400
     11 C15         2.2330   -0.0440    0.9620 cd        1 222     -0.159600
     12 C16         1.5500    0.2020    2.2400 cd        1 222      0.520500
     13 N17         0.2180    0.1000    2.3550 nc        1 222     -0.451300
     14 O18        -0.7310   -0.6450   -0.9860 o         1 222     -0.606500
     15 N21         2.3700    0.6200    3.3340 nh        1 222     -0.573000
     16 C22         1.7190    1.1400    4.5340 c3        1 222      0.189800
     17 C23         3.4630   -0.2660    3.6140 ca        1 222      0.082600
     18 C33         4.7700    0.2590    3.5300 ca        1 222     -0.082000
     19 C34         5.8800   -0.5310    3.7920 ca        1 222     -0.169000
     20 C35         5.7090   -1.8810    4.1460 ca        1 222      0.139900
     21 C36         4.4190   -2.4290    4.2380 ca        1 222     -0.162000
     22 C37         3.3100   -1.6240    3.9780 ca        1 222      0.026400
     23 CL2         1.7670   -2.3170    4.1090 cl        1 222     -0.060400
     24 F42         6.7890   -2.6570    4.3990 f         1 222     -0.131900
     25 C24         1.1290    2.5340    4.3330 c3        1 222     -0.104400
     26 C27         0.5990    3.0910    5.6560 c3        1 222      0.105000
     27 N30        -0.6220    2.5090    6.1370 n         1 222     -0.523400
     28 C43        -0.6970    1.3460    6.9540 c         1 222      0.725100
     29 C44        -2.1530    1.0470    7.1420 ca        1 222     -0.136600
     30 C45        -2.8970    2.0210    6.4180 ca        1 222     -0.136600
     31 C46        -1.9220    2.9520    5.7620 c         1 222      0.725100
     32 C47        -2.7860    0.0500    7.8520 ca        1 222     -0.062500
     33 C48        -4.1940    0.0290    7.8370 ca        1 222     -0.118000
     34 C49        -4.9200    0.9800    7.1310 ca        1 222     -0.118000
     35 C50        -4.2740    1.9990    6.4040 ca        1 222     -0.062500
     36 O55         0.2770    0.7430    7.4120 o         1 222     -0.572500
     37 O56        -2.1550    3.9310    5.0510 o         1 222     -0.572500
     38 H4         -4.3850   -1.8680    3.2270 ha        1 222      0.148000
     39 H5         -5.8220   -0.3190    1.9090 ha        1 222      0.138000
     40 H6         -4.7840    1.2790    0.2930 ha        1 222      0.142000
     41 H14         1.9080   -0.5450   -1.1160 ha        1 222      0.171000
     42 H15         3.3310    0.0250    0.9230 ha        1 222      0.159000
     43 H221        2.5080    1.2020    5.3400 h1        1 222      0.060700
     44 H222        0.9160    0.4440    4.9140 h1        1 222      0.060700
     45 H33         4.9160    1.3170    3.2550 ha        1 222      0.156000
     46 H34         6.8950   -0.1100    3.7260 ha        1 222      0.156000
     47 H36         4.2940   -3.4860    4.5190 ha        1 222      0.167000
     48 H241        0.3140    2.5180    3.5650 hc        1 222      0.064700
     49 H242        1.9230    3.2380    3.9680 hc        1 222      0.064700
     50 H271        0.4090    4.1960    5.5170 h1        1 222      0.068200
     51 H272        1.3810    2.9510    6.4570 h1        1 222      0.068200
     52 H47        -2.2150   -0.7050    8.4120 ha        1 222      0.159000
     53 H48        -4.7210   -0.7590    8.3970 ha        1 222      0.143000
     54 H49        -6.0210    0.9430    7.1340 ha        1 222      0.143000
     55 H50        -4.8530    2.7490    5.8460 ha        1 222      0.159000
     56 H1         -2.3210    1.3360   -0.0070 ha        1 222      0.155000
@<TRIPOS>BOND
     1    1    8 1
     2    1    9 1
     3    1   14 2
     4    2    3 ar
     5    2    7 ar
     6    2   56 1
     7    3    4 ar
     8    3    9 1
     9    4    5 ar
    10    4   10 1
    11    5    6 ar
    12    5   38 1
    13    6    7 ar
    14    6   39 1
    15    7   40 1
    16    8   11 2
    17    8   41 1
    18    9   13 1
    19   11   12 1
    20   11   42 1
    21   12   13 2
    22   12   15 1
    23   15   16 1
    24   15   17 1
    25   16   25 1
    26   16   43 1
    27   16   44 1
    28   17   18 ar
    29   17   22 ar
    30   18   19 ar
    31   18   45 1
    32   19   20 ar
    33   19   46 1
    34   20   21 ar
    35   20   24 1
    36   21   22 ar
    37   21   47 1
    38   22   23 1
    39   25   26 1
    40   25   48 1
    41   25   49 1
    42   26   27 1
    43   26   50 1
    44   26   51 1
    45   27   28 1
    46   27   31 1
    47   28   29 1
    48   28   36 2
    49   29   30 ar
    50   29   32 ar
    51   30   31 1
    52   30   35 ar
    53   31   37 2
    54   32   33 ar
    55   32   52 1
    56   33   34 ar
    57   33   53 1
    58   34   35 ar
    59   34   54 1
    60   35   55 1
@<TRIPOS>SUBSTRUCTURE
     1 222         1 TEMP              0 ****  ****    0 ROOT
