@<TRIPOS>MOLECULE
224
   37    39     1     0     0
SMALL
bcc


@<TRIPOS>ATOM
      1 C1         -0.1010   -0.2080    0.1370 cc        1 224     -0.252600
      2 N1          1.2710    0.0450    0.0250 na        1 224     -0.204900
      3 C2         -0.4140   -0.0660    1.5000 cd        1 224      0.285200
      4 N2          0.7300    0.2750    2.2230 nd        1 224     -0.672000
      5 C3          1.7310    0.3390    1.3210 cc        1 224      0.389400
      6 C4          2.0510    0.0090   -1.1690 c3        1 224      0.018300
      7 C5          2.5180    1.3880   -1.7110 c3        1 224      0.331600
      8 O1          3.1920    2.1240   -0.6900 os        1 224     -0.437600
      9 O2          1.3970    2.1740   -2.1080 os        1 224     -0.437600
     10 C6          1.2130    3.2820   -1.2190 c3        1 224      0.106400
     11 C7          2.3970    3.2350   -0.2600 c3        1 224      0.106400
     12 C8          3.4810    1.2120   -2.8900 c3        1 224     -0.082400
     13 C9          2.8190    0.5370   -4.0750 c3        1 224     -0.038100
     14 C10         3.6770    0.6100   -5.2900 ca        1 224     -0.079300
     15 C11         3.8110    1.8190   -5.9830 ca        1 224     -0.118500
     16 C12         4.3460   -0.5260   -5.7590 ca        1 224     -0.118500
     17 C13         5.1400   -0.4590   -6.9020 ca        1 224     -0.122000
     18 C14         4.6020    1.8970   -7.1270 ca        1 224     -0.122000
     19 C15         5.2660    0.7540   -7.5840 ca        1 224      0.015400
     20 CL          6.2330    0.8420   -8.9790 cl        1 224     -0.094400
     21 H1         -0.7190   -0.4590   -0.7220 h4        1 224      0.178000
     22 H2         -1.3790   -0.1910    1.9880 h4        1 224      0.041100
     23 H3          2.7770    0.5930    1.5220 h5        1 224      0.068100
     24 H41         1.4420   -0.4790   -1.9820 h1        1 224      0.076200
     25 H42         2.9800   -0.6000   -0.9770 h1        1 224      0.076200
     26 H61         0.2300    3.1450   -0.7040 h1        1 224      0.066200
     27 H62         1.1980    4.2040   -1.8530 h1        1 224      0.066200
     28 H71         3.0510    4.1400   -0.3190 h1        1 224      0.066200
     29 H72         2.0880    3.0390    0.7990 h1        1 224      0.066200
     30 H81         3.8480    2.2280   -3.1910 hc        1 224      0.067200
     31 H82         4.3640    0.6200   -2.5390 hc        1 224      0.067200
     32 H91         2.6010   -0.5360   -3.8270 hc        1 224      0.058200
     33 H92         1.8340    1.0410   -4.2820 hc        1 224      0.058200
     34 H11         3.2840    2.7150   -5.6210 ha        1 224      0.138000
     35 H12         4.2460   -1.4820   -5.2240 ha        1 224      0.138000
     36 H13         5.6620   -1.3580   -7.2640 ha        1 224      0.148000
     37 H14         4.7010    2.8510   -7.6660 ha        1 224      0.148000
@<TRIPOS>BOND
     1    1    2 1   
     2    1    3 2   
     3    1   21 1   
     4    2    5 1   
     5    2    6 1   
     6    3    4 1   
     7    3   22 1   
     8    4    5 2   
     9    5   23 1   
    10    6    7 1   
    11    6   24 1   
    12    6   25 1   
    13    7    8 1   
    14    7    9 1   
    15    7   12 1   
    16    8   11 1   
    17    9   10 1   
    18   10   11 1   
    19   10   26 1   
    20   10   27 1   
    21   11   28 1   
    22   11   29 1   
    23   12   13 1   
    24   12   30 1   
    25   12   31 1   
    26   13   14 1   
    27   13   32 1   
    28   13   33 1   
    29   14   15 ar  
    30   14   16 ar  
    31   15   18 ar  
    32   15   34 1   
    33   16   17 ar  
    34   16   35 1   
    35   17   19 ar  
    36   17   36 1   
    37   18   19 ar  
    38   18   37 1   
    39   19   20 1   
@<TRIPOS>SUBSTRUCTURE
     1 224         1 TEMP              0 ****  ****    0 ROOT
