@<TRIPOS>MOLECULE
molecule
   37    39     1     0     0
SMALL
bcc


@<TRIPOS>ATOM
      1 C1           0.0000     0.0000     0.0000 cc         1 224      -0.257600
      2 N1           1.3580     0.0000     0.0000 na         1 224      -0.176900
      3 C2          -0.3410     0.0020     1.3320 cd         1 224       0.272200
      4 N2           0.7750     0.0020     2.1300 nd         1 224      -0.668000
      5 C3           1.7870     0.0000     1.2900 cc         1 224       0.380400
      6 C4           2.2100    -0.0020    -1.1810 c3         1 224       0.028300
      7 C5           2.5470     1.4090    -1.6460 c3         1 224       0.305600
      8 O1           3.2500     2.1000    -0.6000 os         1 224      -0.410100
      9 O2           1.3210     2.0980    -1.9420 os         1 224      -0.410100
     10 C6           1.4420     3.3530    -1.2750 c3         1 224       0.091400
     11 C7           2.3010     3.0320    -0.0830 c3         1 224       0.091400
     12 C8           3.4260     1.3860    -2.8910 c3         1 224      -0.085400
     13 C9           2.7310     0.6710    -4.0500 c3         1 224      -0.037100
     14 C10          3.5890     0.6700    -5.2890 ca         1 224      -0.085300
     15 C11          3.4780     1.7150    -6.1950 ca         1 224      -0.115500
     16 C12          4.4750    -0.3750    -5.5040 ca         1 224      -0.115500
     17 C13          5.2690    -0.3750    -6.6510 ca         1 224      -0.119000
     18 C14          4.2730     1.7150    -7.3410 ca         1 224      -0.119000
     19 C15          5.1680     0.6700    -7.5690 ca         1 224       0.021400
     20 Cl           6.1470     0.6690    -8.9840 cl         1 224      -0.100400
     21 H1          -0.6640    -0.0000    -0.8560 h4         1 224       0.185000
     22 H2          -1.3590     0.0030     1.7030 h4         1 224       0.034100
     23 H3           2.8280    -0.0000     1.5870 h5         1 224       0.062100
     24 H41          1.7010    -0.5250    -1.9820 h1         1 224       0.076700
     25 H42          3.1310    -0.5250    -0.9500 h1         1 224       0.076700
     26 H61          1.9340     4.0780    -1.9130 h1         1 224       0.066700
     27 H62          0.4700     3.7100    -0.9580 h1         1 224       0.066700
     28 H71          1.7080     2.5750     0.7010 h1         1 224       0.066700
     29 H72          2.8010     3.9230     0.2770 h1         1 224       0.066700
     30 H81          3.6490     2.4050    -3.1860 hc         1 224       0.064700
     31 H82          4.3520     0.8730    -2.6620 hc         1 224       0.064700
     32 H91          2.5250    -0.3530    -3.7620 hc         1 224       0.055700
     33 H92          1.7960     1.1730    -4.2670 hc         1 224       0.055700
     34 H11          2.7810     2.5240    -6.0140 ha         1 224       0.139000
     35 H12          4.5500    -1.1840    -4.7880 ha         1 224       0.139000
     36 H13          5.9640    -1.1860    -6.8280 ha         1 224       0.145000
     37 H14          4.1940     2.5260    -8.0550 ha         1 224       0.145000
@<TRIPOS>BOND
     1     1     2 1
     2     1     3 2
     3     1    21 1
     4     2     5 1
     5     2     6 1
     6     3     4 1
     7     3    22 1
     8     4     5 2
     9     5    23 1
    10     6     7 1
    11     6    24 1
    12     6    25 1
    13     7     9 1
    14     7    12 1
    15     7     8 1
    16     8    11 1
    17     9    10 1
    18    10    11 1
    19    10    26 1
    20    10    27 1
    21    11    28 1
    22    11    29 1
    23    12    13 1
    24    12    30 1
    25    12    31 1
    26    13    14 1
    27    13    32 1
    28    13    33 1
    29    14    15 ar
    30    14    16 ar
    31    15    18 ar
    32    15    34 1
    33    16    17 ar
    34    16    35 1
    35    17    19 ar
    36    17    36 1
    37    18    19 ar
    38    18    37 1
    39    19    20 1
@<TRIPOS>SUBSTRUCTURE
     1 224         1 TEMP              0 ****  ****    0 ROOT
