@<TRIPOS>MOLECULE
225
   44    45     1     0     0
SMALL
bcc


@<TRIPOS>ATOM
      1 C15          0.0000     0.0000     0.0000 c3         1 225      -0.003100
      2 C14          1.5310     0.0000     0.0000 c3         1 225       0.217400
      3 O2           2.0070     0.0000     1.3480 os         1 225      -0.407900
      4 C13          3.3450    -0.0000     1.5240 c          1 225       0.736300
      5 O1           4.0860     0.0010     0.5600 o          1 225      -0.577000
      6 C2           3.8850     0.0000     2.8310 ce         1 225      -0.253400
      7 C1           3.8420     1.1290     3.5610 c2         1 225      -0.021200
      8 C12          3.2120     2.3680     2.9780 c3         1 225       0.047100
      9 N1           4.3620     1.1660     4.8260 nu         1 225      -0.137800
     10 C5           5.2400     0.2020     5.2390 c2         1 225       0.039800
     11 C18          6.1040     0.4510     6.4490 c3         1 225       0.043100
     12 C4           5.3420    -0.9650     4.5800 ce         1 225      -0.303400
     13 C16          6.2670    -1.9350     5.0300 c          1 225       0.738300
     14 O3           6.9600    -1.7090     6.0050 o          1 225      -0.623000
     15 O4           6.3820    -3.1120     4.3790 os         1 225      -0.403900
     16 C17          7.3350    -4.0460     4.8900 c3         1 225       0.262700
     17 C3           4.4890    -1.2620     3.3770 c3         1 225       0.172000
     18 C6           3.3880    -2.2120     3.7660 ca         1 225      -0.078300
     19 C7           2.4610    -1.8410     4.7220 ca         1 225      -0.080000
     20 C8           1.4480    -2.7130     5.0800 ca         1 225      -0.093000
     21 C9           1.3610    -3.9550     4.4810 ca         1 225      -0.092000
     22 C10          2.2880    -4.3290     3.5240 ca         1 225      -0.039600
     23 Cl1          2.1800    -5.8890     2.7720 cl         1 225      -0.009400
     24 C11          3.2980    -3.4540     3.1620 ca         1 225      -0.026600
     25 Cl2          4.4580    -3.9180     1.9560 cl         1 225       0.013600
     26 H151        -0.3610    -0.0500    -1.0200 hc         1 225       0.009700
     27 H152        -0.3610    -0.8590     0.5530 hc         1 225       0.009700
     28 H153        -0.3610     0.9080     0.4670 hc         1 225       0.009700
     29 H141         1.8920    -0.8850    -0.5110 h1         1 225       0.008200
     30 H142         1.8920     0.8850    -0.5110 h1         1 225       0.008200
     31 H121         2.1340     2.2660     2.9920 hc         1 225       0.022367
     32 H122         3.5490     2.4980     1.9570 hc         1 225       0.022367
     33 H123         3.5020     3.2310     3.5660 hc         1 225       0.022367
     34 H181         5.8830    -0.2900     7.2090 hc         1 225       0.031367
     35 H182         7.1470     0.3810     6.1680 hc         1 225       0.031367
     36 H183         5.9000     1.4410     6.8400 hc         1 225       0.031367
     37 H171         7.0800    -4.3000     5.9110 h1         1 225      -0.000633
     38 H172         7.3260    -4.9420     4.2810 h1         1 225      -0.000633
     39 H173         8.3240    -3.6030     4.8640 h1         1 225      -0.000633
     40 H7           2.5280    -0.8680     5.1920 ha         1 225       0.106000
     41 H8           0.7220    -2.4210     5.8290 ha         1 225       0.105000
     42 H9           0.5680    -4.6370     4.7620 ha         1 225       0.115000
     43 H18          4.0980     1.9010     5.4510 hn         1 225       0.284800
     44 H19          5.1050    -1.7180     2.6110 hc         1 225       0.062700
@<TRIPOS>BOND
     1     1     2 1   
     2     1    26 1   
     3     1    27 1   
     4     1    28 1   
     5     2     3 1   
     6     2    29 1   
     7     2    30 1   
     8     3     4 1   
     9     4     5 2   
    10     4     6 1   
    11     6     7 2   
    12     6    17 1   
    13     7     8 1   
    14     7     9 1   
    15     8    31 1   
    16     8    32 1   
    17     8    33 1   
    18     9    10 1   
    19     9    43 1   
    20    10    11 1   
    21    10    12 2   
    22    11    34 1   
    23    11    35 1   
    24    11    36 1   
    25    12    13 1   
    26    12    17 1   
    27    13    14 2   
    28    13    15 1   
    29    15    16 1   
    30    16    37 1   
    31    16    38 1   
    32    16    39 1   
    33    17    18 1   
    34    17    44 1   
    35    18    19 ar  
    36    18    24 ar  
    37    19    20 ar  
    38    19    40 1   
    39    20    21 ar  
    40    20    41 1   
    41    21    22 ar  
    42    21    42 1   
    43    22    23 1   
    44    22    24 ar  
    45    24    25 1   
@<TRIPOS>SUBSTRUCTURE
     1 225         1 TEMP              0 ****  ****    0 ROOT
