@<TRIPOS>MOLECULE
226
   23    24     1     0     0
SMALL
bcc


@<TRIPOS>ATOM
      1 OAB        -0.0330    0.1020    0.2350 oh        1 226     -0.497100
      2 CAM         1.3370    0.0330    0.0880 ca        1 226      0.055100
      3 CAN         2.1080    0.0090    1.2900 ca        1 226      0.069000
      4 CAH         1.4780    0.0550    2.5570 ca        1 226     -0.249000
      5 CAI         2.2470    0.0300    3.7070 ca        1 226      0.181100
      6 OAC         1.7070    0.0710    4.9700 oh        1 226     -0.495100
      7 CAF         3.6620   -0.0400    3.6520 ca        1 226     -0.265000
      8 CAK         4.2770   -0.0840    2.4130 ca        1 226      0.198100
      9 OAE         5.6400   -0.1520    2.2800 oh        1 226     -0.466100
     10 CAO         3.5230   -0.0610    1.1970 ca        1 226     -0.109000
     11 CAL         4.1310   -0.1060   -0.0960 ca        1 226      0.186100
     12 OAA         5.5010   -0.1730   -0.1220 oh        1 226     -0.465100
     13 CAG         3.3730   -0.0820   -1.2540 ca        1 226     -0.291000
     14 CAJ         1.9640   -0.0120   -1.1510 ca        1 226      0.087100
     15 OAD         1.1490    0.0150   -2.2640 oh        1 226     -0.514100
     16 HOAB       -0.4230    0.1120   -0.6530 ho        1 226      0.434000
     17 HAH         0.3800    0.1090    2.5990 ha        1 226      0.159000
     18 HOAC        0.7430    0.1180    4.8820 ho        1 226      0.425000
     19 HAF         4.2360   -0.0570    4.5870 ha        1 226      0.155000
     20 HOAE        6.0270   -0.1610    3.1690 ho        1 226      0.419000
     21 HOAA        5.7820   -0.1980   -1.0490 ho        1 226      0.415000
     22 HAG         3.8450   -0.1170   -2.2440 ha        1 226      0.138000
     23 HOAD        1.7160   -0.0200   -3.0470 ho        1 226      0.430000
@<TRIPOS>BOND
     1    1    2 1   
     2    1   16 1   
     3    2    3 ar  
     4    2   14 ar  
     5    3    4 ar  
     6    3   10 ar  
     7    4    5 ar  
     8    4   17 1   
     9    5    6 1   
    10    5    7 ar  
    11    6   18 1   
    12    7    8 ar  
    13    7   19 1   
    14    8    9 1   
    15    8   10 ar  
    16    9   20 1   
    17   10   11 ar  
    18   11   12 1   
    19   11   13 ar  
    20   12   21 1   
    21   13   14 ar  
    22   13   22 1   
    23   14   15 1   
    24   15   23 1   
@<TRIPOS>SUBSTRUCTURE
     1 226         1 TEMP              0 ****  ****    0 ROOT
