@<TRIPOS>MOLECULE
molecule
   23    24     1     0     0
SMALL
bcc


@<TRIPOS>ATOM
      1 OAB          0.0000     0.0000     0.0000 oh         1 226      -0.509100
      2 CAM          1.3670     0.0000     0.0000 ca         1 226       0.066100
      3 CAN          2.0870     0.0000     1.2070 ca         1 226       0.008000
      4 CAH          1.4340    -0.0010     2.4500 ca         1 226      -0.163000
      5 CAI          2.1640    -0.0010     3.6380 ca         1 226       0.138100
      6 OAC          1.5160    -0.0020     4.8350 oh         1 226      -0.519100
      7 CAF          3.5550    -0.0010     3.6010 ca         1 226      -0.221000
      8 CAK          4.2210    -0.0000     2.3750 ca         1 226       0.160100
      9 OAE          5.5860     0.0000     2.4180 oh         1 226      -0.501100
     10 CAO          3.5020    -0.0000     1.1680 ca         1 226      -0.072000
     11 CAL          4.1560     0.0010    -0.0740 ca         1 226       0.157100
     12 OAA          5.5160     0.0010    -0.1920 oh         1 226      -0.499100
     13 CAG          3.4250     0.0010    -1.2630 ca         1 226      -0.226000
     14 CAJ          2.0340     0.0010    -1.2250 ca         1 226       0.111100
     15 OAD          1.3350     0.0020    -2.3960 oh         1 226      -0.517100
     16 HOAB        -0.3140     0.8760    -0.1490 ho         1 226       0.423000
     17 HAH          0.3510    -0.0040     2.4860 ha         1 226       0.158000
     18 HOAC         1.3660     0.8870     5.1120 ho         1 226       0.424000
     19 HAF          4.1220    -0.0010     4.5250 ha         1 226       0.150000
     20 HOAE         5.8860    -0.7540     2.8980 ho         1 226       0.428000
     21 HOAA         5.7890     0.7580    -0.6850 ho         1 226       0.426000
     22 HAG          3.9410     0.0010    -2.2160 ha         1 226       0.151000
     23 HOAD         1.3480    -0.8630    -2.7710 ho         1 226       0.429000
@<TRIPOS>BOND
     1     1     2 1
     2    15    14 1
     3     2    14 ar
     4     2     3 ar
     5    14    13 ar
     6     4     3 ar
     7     4     5 ar
     8     3    10 ar
     9     6     5 1
    10     5     7 ar
    11    13    11 ar
    12    10    11 ar
    13    10     8 ar
    14    11    12 1
    15     7     8 ar
    16     8     9 1
    17     1    16 1
    18     4    17 1
    19     6    18 1
    20     7    19 1
    21     9    20 1
    22    12    21 1
    23    13    22 1
    24    15    23 1
@<TRIPOS>SUBSTRUCTURE
     1 226         1 TEMP              0 ****  ****    0 ROOT
