@<TRIPOS>MOLECULE
228
   55    59     1     0     0
SMALL
bcc


@<TRIPOS>ATOM
      1 C28          0.0000     0.0000     0.0000 ca         1 228      -0.091000
      2 C27          1.3790     0.0000     0.0000 ca         1 228       0.054100
      3 O31          2.1780     0.0000     1.1020 os         1 228      -0.293900
      4 C30          3.4860     0.0000     0.4950 c3         1 228       0.404200
      5 O29          3.4460     0.0010    -0.9480 os         1 228      -0.291900
      6 C26          2.1040    -0.0010    -1.1710 ca         1 228       0.052100
      7 C25          1.4880     0.0000    -2.4060 ca         1 228      -0.091000
      8 C24          0.0920    -0.0010    -2.4340 ca         1 228      -0.091000
      9 C23         -0.6320     0.0000    -1.2380 ca         1 228      -0.090300
     10 C22         -2.1400    -0.0000    -1.2930 c3         1 228       0.006900
     11 C21         -2.7350     1.4060    -1.3160 c3         1 228       0.044000
     12 N20         -4.1800     1.3970    -1.3430 ns         1 228      -0.195900
     13 C18         -4.9130     1.3830    -2.5140 c          1 228       0.585100
     14 O19         -4.4640     1.3760    -3.6540 o          1 228      -0.614100
     15 C17         -6.3960     1.3720    -2.3040 c3         1 228       0.051500
     16 C16         -6.9420     2.8020    -2.3020 c3         1 228      -0.025400
     17 C15         -7.2370     3.0740    -3.7690 c3         1 228      -0.037400
     18 C14         -7.7420     1.7280    -4.2830 c3         1 228       0.165800
     19 N13         -7.0530     0.7430    -3.4500 nh         1 228      -0.398300
     20 C1          -7.1500    -0.6200    -3.6500 ca         1 228       0.597200
     21 N1          -6.4790    -1.5020    -2.8360 nb         1 228      -0.735000
     22 C6          -7.9470    -1.1050    -4.7010 ca         1 228      -0.442600
     23 C5          -8.0180    -2.4730    -4.8700 ca         1 228       0.488600
     24 C12         -8.8530    -3.0340    -5.9720 c3         1 228      -0.060400
     25 N4          -7.3700    -3.3590    -4.0870 nb         1 228      -0.698000
     26 C3          -6.6290    -2.8130    -3.1030 ca         1 228       0.586500
     27 N7          -5.9490    -3.6970    -2.2760 na         1 228       0.295300
     28 C8          -5.1430    -3.3650    -1.2220 cc         1 228      -0.413600
     29 C9          -4.7010    -4.5670    -0.7200 cd         1 228       0.307200
     30 NFE         -5.2130    -5.6200    -1.4360 nd         1 228      -0.609000
     31 C11         -5.9590    -5.0630    -2.3650 cc         1 228       0.245400
     32 H28         -0.5660     0.0010     0.9240 ha         1 228       0.122000
     33 H301         4.0050     0.8950     0.8160 h2         1 228       0.009700
     34 H302         4.0050    -0.8950     0.8160 h2         1 228       0.009700
     35 H25          2.0680    -0.0010    -3.3210 ha         1 228       0.120000
     36 H24         -0.4310    -0.0000    -3.3830 ha         1 228       0.118000
     37 H221        -2.5200    -0.5250    -0.4250 hc         1 228       0.025700
     38 H222        -2.4550    -0.5270    -2.1860 hc         1 228       0.025700
     39 H211        -2.3720     1.9250    -2.1950 h1         1 228       0.027700
     40 H212        -2.4050     1.9400    -0.4330 h1         1 228       0.027700
     41 HN20        -4.6730     1.4010    -0.4720 hn         1 228       0.173500
     42 H17         -6.6570     0.8620    -1.3850 h1         1 228       0.052700
     43 H161        -6.1950     3.4930    -1.9310 hc         1 228       0.029200
     44 H162        -7.8510     2.8600    -1.7150 hc         1 228       0.029200
     45 H151        -8.0050     3.8320    -3.8690 hc         1 228       0.036700
     46 H152        -6.3330     3.3650    -4.2910 hc         1 228       0.036700
     47 H141        -8.8140     1.6520    -4.1490 h1         1 228       0.025200
     48 H142        -7.4730     1.5970    -5.3240 h1         1 228       0.025200
     49 H6          -8.6900    -0.4630    -5.1580 ha         1 228       0.140000
     50 H121        -8.5860    -2.5560    -6.9070 hc         1 228       0.022033
     51 H122        -8.6790    -4.1010    -6.0500 hc         1 228       0.022033
     52 H123        -9.9000    -2.8540    -5.7610 hc         1 228       0.022033
     53 H8          -4.9050    -2.3720    -0.8600 h4         1 228       0.164000
     54 H9          -4.0370    -4.6690     0.1290 h4         1 228      -0.003900
     55 H11         -6.5160    -5.6190    -3.1100 h5         1 228       0.033100
@<TRIPOS>BOND
     1     1     2 ar  
     2     1     9 ar  
     3     1    32 1   
     4     2     3 1   
     5     2     6 ar  
     6     3     4 1   
     7     4     5 1   
     8     4    33 1   
     9     4    34 1   
    10     5     6 1   
    11     6     7 ar  
    12     7     8 ar  
    13     7    35 1   
    14     8     9 ar  
    15     8    36 1   
    16     9    10 1   
    17    10    11 1   
    18    10    37 1   
    19    10    38 1   
    20    11    12 1   
    21    11    39 1   
    22    11    40 1   
    23    12    13 1   
    24    12    41 1   
    25    13    14 2   
    26    13    15 1   
    27    15    16 1   
    28    15    19 1   
    29    15    42 1   
    30    16    17 1   
    31    16    43 1   
    32    16    44 1   
    33    17    18 1   
    34    17    45 1   
    35    17    46 1   
    36    18    19 1   
    37    18    47 1   
    38    18    48 1   
    39    19    20 1   
    40    20    21 ar  
    41    20    22 ar  
    42    21    26 ar  
    43    22    23 ar  
    44    22    49 1   
    45    23    24 1   
    46    23    25 ar  
    47    24    50 1   
    48    24    51 1   
    49    24    52 1   
    50    25    26 ar  
    51    26    27 1   
    52    27    28 1   
    53    27    31 1   
    54    28    29 2   
    55    28    53 1   
    56    29    30 1   
    57    29    54 1   
    58    30    31 2   
    59    31    55 1   
@<TRIPOS>SUBSTRUCTURE
     1 228         1 TEMP              0 ****  ****    0 ROOT
