@<TRIPOS>MOLECULE
molecule
   35    36     1     0     0
SMALL
bcc


@<TRIPOS>ATOM
      1 O4           0.0000     0.0000     0.0000 oh         1 229      -0.609800
      2 C11          1.4250     0.0000     0.0000 c3         1 229       0.141400
      3 C6           1.9180     0.0000     1.4460 c3         1 229       0.152100
      4 O3           1.3420    -1.1090     2.1380 oh         1 229      -0.598800
      5 C8           3.4530    -0.0340     1.5610 c3         1 229       0.160500
      6 C3           4.0440    -1.2680     0.8760 c3         1 229       0.146400
      7 O2           5.4620    -1.2470     1.0090 oh         1 229      -0.621800
      8 N2           4.0570     1.1630     1.0150 n7         1 229      -0.812200
      9 C10          3.5610     2.3610     1.6870 c3         1 229       0.233100
     10 C4           4.1600     3.6140     1.1170 cc         1 229      -0.134300
     11 C1           3.6550     4.3730     0.0700 cc         1 229       0.114400
     12 N4           2.4920     4.1430    -0.6800 nc         1 229      -0.550100
     13 C7           2.3050     5.0480    -1.5940 cd         1 229       0.457800
     14 N3           3.1150     6.1490    -1.8640 ns         1 229      -0.494400
     15 C9           5.3110     4.2100     1.5480 cd         1 229      -0.119300
     16 N1           5.5160     5.3290     0.7720 na         1 229      -0.133100
     17 C2           4.5020     5.4350    -0.1400 cd         1 229      -0.214900
     18 C5           4.2840     6.4270    -1.1530 c          1 229       0.742100
     19 O1           5.0140     7.3880    -1.3710 o          1 229      -0.625500
     20 HO4         -0.3140    -0.0680    -0.8860 ho         1 229       0.402000
     21 H111         1.7880    -0.8850    -0.5080 h1         1 229       0.041200
     22 H112         1.7880     0.8850    -0.5080 h1         1 229       0.041200
     23 H6           1.5670     0.9090     1.9180 h1         1 229       0.043700
     24 HO3          1.0000    -0.8180     2.9680 ho         1 229       0.404000
     25 H8           3.7060    -0.0840     2.6130 h1         1 229       0.024700
     26 H31          3.6510    -2.1630     1.3410 h1         1 229       0.037700
     27 H32          3.7800    -1.2590    -0.1750 h1         1 229       0.037700
     28 HO2          5.8100    -2.0950     0.7880 ho         1 229       0.406000
     29 HN2          5.0510     1.1110     1.1150 hn         1 229       0.382800
     30 H101         3.8080     2.3000     2.7410 h1         1 229       0.038200
     31 H102         2.4840     2.4050     1.5800 h1         1 229       0.038200
     32 H7           1.4220     4.9360    -2.2120 h5         1 229       0.046800
     33 HN3          2.8470     6.7680    -2.6020 hn         1 229       0.332500
     34 H9           5.5460     4.2330     2.6050 h4         1 229       0.177000
     35 HN1          6.2850     5.9630     0.8610 hn         1 229       0.314700
@<TRIPOS>BOND
     1     1     2 1   
     2     1    20 1   
     3     2     3 1   
     4     2    21 1   
     5     2    22 1   
     6     3     5 1   
     7     3     4 1   
     8     3    23 1   
     9     4    24 1   
    10     5     6 1   
    11     5     8 1   
    12     5    25 1   
    13     6     7 1   
    14     6    26 1   
    15     6    27 1   
    16     7    28 1   
    17     8     9 1   
    18     8    29 1   
    19     9    10 1   
    20     9    30 1   
    21     9    31 1   
    22    10    11 1   
    23    10    15 2   
    24    11    12 1   
    25    11    17 2   
    26    12    13 2   
    27    13    14 1   
    28    13    32 1   
    29    14    18 1   
    30    14    33 1   
    31    15    16 1   
    32    15    34 1   
    33    16    17 1   
    34    16    35 1   
    35    17    18 1   
    36    18    19 2   
@<TRIPOS>SUBSTRUCTURE
     1 229         1 TEMP              0 ****  ****    0 ROOT
