@<TRIPOS>MOLECULE
22A
   31    32     1     0     0
SMALL
bcc


@<TRIPOS>ATOM
      1 N1           0.0000     0.0000     0.0000 ns         1 22A       0.006600
      2 C2           1.3580     0.0000     0.0000 cc         1 22A       0.277800
      3 N3           2.0500     0.0000     1.1020 nd         1 22A      -0.464100
      4 C4           1.4380    -0.0000     2.3100 cd         1 22A       0.114400
      5 C5           0.0390     0.0010     2.3720 cc         1 22A      -0.446900
      6 C6          -0.6870     0.0060     1.1630 c          1 22A       0.646100
      7 O6          -1.9070     0.0070     1.1690 o          1 22A      -0.713500
      8 N7          -0.3120     0.0000     3.7020 na         1 22A       0.481900
      9 C8           0.8220    -0.0010     4.4550 cc         1 22A      -0.305300
     10 C9           1.9000    -0.0010     3.6430 cd         1 22A      -0.140300
     11 N1'          3.8810     1.3620     3.9970 n7         1 22A      -0.545200
     12 C10          3.3410    -0.0010     4.0830 c3         1 22A       0.235100
     13 C2'          5.2870     1.4010     4.4180 c3         1 22A       0.100500
     14 C3'          6.1850     1.0420     3.2330 c3         1 22A       0.229400
     15 C4'          5.6330     2.8060     4.9130 c3         1 22A       0.229400
     16 O5'          5.5390     3.7300     3.8270 oh         1 22A      -0.545800
     17 O6'          6.0650     2.0460     2.2230 oh         1 22A      -0.545800
     18 HN1         -0.4960    -0.0000    -0.8690 hn         1 22A       0.179500
     19 H2           1.8820    -0.0050    -0.9480 h5         1 22A       0.006800
     20 H8           0.8550    -0.0010     5.5370 h4         1 22A       0.146000
     21 HN1'         3.3410     1.9720     4.5780 hn         1 22A       0.251800
     22 H10          3.4060    -0.3510     5.1060 h1         1 22A       0.006200
     23 H10A         3.9150    -0.6580     3.4400 h1         1 22A       0.006200
     24 H2'          5.4440     0.6880     5.2180 h1         1 22A       0.009700
     25 H3'          7.2150     0.9840     3.5650 h1         1 22A      -0.019800
     26 H3'A         5.8820     0.0840     2.8280 h1         1 22A      -0.019800
     27 H4'          6.6420     2.8120     5.3060 h1         1 22A      -0.019800
     28 H4'A         4.9390     3.0950     5.6930 h1         1 22A      -0.019800
     29 HO5'         5.6070     4.6110     4.1570 ho         1 22A       0.370500
     30 HO6'         6.5960     1.8090     1.4810 ho         1 22A       0.370500
     31 H14         -1.2470     0.0010     4.0570 hn         1 22A       0.117700
@<TRIPOS>BOND
     1     1     2 1   
     2     1     6 1   
     3     1    18 1   
     4     2     3 2   
     5     2    19 1   
     6     3     4 1   
     7     4     5 2   
     8     4    10 1   
     9     5     6 1   
    10     5     8 1   
    11     6     7 2   
    12     8     9 1   
    13     8    31 1   
    14     9    10 2   
    15     9    20 1   
    16    10    12 1   
    17    11    12 1   
    18    11    13 1   
    19    11    21 1   
    20    12    22 1   
    21    12    23 1   
    22    13    14 1   
    23    13    15 1   
    24    13    24 1   
    25    14    17 1   
    26    14    25 1   
    27    14    26 1   
    28    15    16 1   
    29    15    27 1   
    30    15    28 1   
    31    16    29 1   
    32    17    30 1   
@<TRIPOS>SUBSTRUCTURE
     1 22A         1 TEMP              0 ****  ****    0 ROOT
