@<TRIPOS>MOLECULE
molecule
   31    32     1     0     0
SMALL
bcc


@<TRIPOS>ATOM
      1 N1           0.0000     0.0000     0.0000 ns         1 22A      -0.462400
      2 C2           1.3580     0.0000     0.0000 cc         1 22A       0.466800
      3 N3           2.0500     0.0000     1.1020 nd         1 22A      -0.591100
      4 C4           1.4380    -0.0000     2.3100 cd         1 22A       0.164400
      5 C5           0.0390     0.0010     2.3720 cc         1 22A      -0.236900
      6 C6          -0.6870     0.0060     1.1630 c          1 22A       0.725100
      7 O6          -1.9070     0.0070     1.1690 o          1 22A      -0.661500
      8 N7          -0.3120     0.0000     3.7020 na         1 22A      -0.121100
      9 C8           0.8220    -0.0010     4.4550 cc         1 22A      -0.108300
     10 C9           1.9000    -0.0010     3.6430 cd         1 22A      -0.144300
     11 N1'          3.8810     1.3620     3.9970 n7         1 22A      -0.782200
     12 C10          3.3410    -0.0010     4.0830 c3         1 22A       0.237100
     13 C2'          5.2870     1.4010     4.4180 c3         1 22A       0.170500
     14 C3'          6.1850     1.0420     3.2330 c3         1 22A       0.151400
     15 C4'          5.6330     2.8060     4.9130 c3         1 22A       0.151400
     16 O5'          5.5390     3.7300     3.8270 oh         1 22A      -0.560800
     17 O6'          6.0650     2.0460     2.2230 oh         1 22A      -0.560800
     18 HN1         -0.4960    -0.0000    -0.8690 hn         1 22A       0.339500
     19 H2           1.8820    -0.0050    -0.9480 h5         1 22A       0.058800
     20 H8           0.8550    -0.0010     5.5370 h4         1 22A       0.171000
     21 HN1'         3.3410     1.9720     4.5780 hn         1 22A       0.354800
     22 H10          3.4060    -0.3510     5.1060 h1         1 22A       0.034700
     23 H10A         3.9150    -0.6580     3.4400 h1         1 22A       0.034700
     24 H2'          5.4440     0.6880     5.2180 h1         1 22A       0.028700
     25 H3'          7.2150     0.9840     3.5650 h1         1 22A       0.014450
     26 H3'A         5.8820     0.0840     2.8280 h1         1 22A       0.014450
     27 H4'          6.6420     2.8120     5.3060 h1         1 22A       0.014450
     28 H4'A         4.9390     3.0950     5.6930 h1         1 22A       0.014450
     29 HO5'         5.6070     4.6110     4.1570 ho         1 22A       0.385000
     30 HO6'         6.5960     1.8090     1.4810 ho         1 22A       0.385000
     31 H14         -1.2470     0.0010     4.0570 hn         1 22A       0.312700
@<TRIPOS>BOND
     1     1     2 1   
     2     1    18 1   
     3     2     3 2   
     4     2    19 1   
     5     4     3 1   
     6     4    10 1   
     7     5     4 2   
     8     6     1 1   
     9     6     5 1   
    10     7     6 2   
    11     8     5 1   
    12     8     9 1   
    13     9    10 2   
    14     9    20 1   
    15    10    12 1   
    16    11    13 1   
    17    11    21 1   
    18    12    11 1   
    19    12    22 1   
    20    12    23 1   
    21    13    15 1   
    22    13    14 1   
    23    13    24 1   
    24    14    17 1   
    25    14    25 1   
    26    14    26 1   
    27    15    27 1   
    28    15    28 1   
    29    16    15 1   
    30    16    29 1   
    31    17    30 1   
    32     8    31 1   
@<TRIPOS>SUBSTRUCTURE
     1 22A         1 TEMP              0 ****  ****    0 ROOT
