@<TRIPOS>MOLECULE
22C
   40    41     1     0     0
SMALL
bcc


@<TRIPOS>ATOM
      1 C10          0.0000     0.0000     0.0000 c3         1 22C       0.130400
      2 N12         -1.8280    -0.0000     1.6660 n          1 22C      -0.163800
      3 C13         -2.3330    -0.0000     3.0460 c3         1 22C       0.032000
      4 C17         -6.0790     1.1890     3.7740 c3         1 22C      -0.101400
      5 C20         -3.7360     1.2040     0.7360 c3         1 22C       0.031500
      6 C21         -2.7940     0.0060     0.5580 c3         1 22C       0.032000
      7 C02          3.4330     0.0110    -1.2840 ca         1 22C      -0.069600
      8 C03          4.0590     0.0110    -2.5170 ca         1 22C      -0.059000
      9 C04          3.3050     0.0050    -3.6760 ca         1 22C      -0.068600
     10 Cl2          4.0920     0.0030    -5.2230 cl         1 22C      -0.019400
     11 C06          1.9220    -0.0010    -3.6050 ca         1 22C      -0.053000
     12 C07          1.2930    -0.0010    -2.3750 ca         1 22C      -0.199000
     13 C08          2.0460     0.0000    -1.2110 ca         1 22C       0.150100
     14 O09          1.4290     0.0000     0.0000 os         1 22C      -0.256900
     15 C11         -0.5030     0.0000     1.4200 c          1 22C       0.581100
     16 C14         -3.2790     1.1940     3.2220 c3         1 22C       0.031500
     17 N15         -4.2450     1.1950     2.1140 n          1 22C      -0.167800
     18 C16         -5.5710     1.1990     2.3550 c          1 22C       0.592100
     19 C18         -7.6090     1.1970     3.7680 c3         1 22C       0.020900
     20 O19         -6.3550     1.2100     1.4310 o          1 22C      -0.641100
     21 O22          0.2850    -0.0010     2.3420 o          1 22C      -0.610100
     22 H1          -0.3610     0.8850    -0.5110 h1         1 22C       0.018700
     23 H2          -0.3610    -0.8850    -0.5110 h1         1 22C       0.018700
     24 H3          -2.8710    -0.9210     3.2350 h1         1 22C       0.037450
     25 H4          -1.5020     0.0910     3.7350 h1         1 22C       0.037450
     26 H5          -5.7240     0.2990     4.2790 hc         1 22C       0.028200
     27 H6          -5.7160     2.0680     4.2940 hc         1 22C       0.028200
     28 H7          -3.1920     2.1230     0.5550 h1         1 22C       0.039200
     29 H8          -4.5630     1.1210     0.0420 h1         1 22C       0.039200
     30 H9          -2.2660     0.0960    -0.3830 h1         1 22C       0.037450
     31 H10         -3.3690    -0.9120     0.5730 h1         1 22C       0.037450
     32 H11          5.1400     0.0150    -2.5750 ha         1 22C       0.127000
     33 H12          1.3330    -0.0030    -4.5150 ha         1 22C       0.114000
     34 H13          0.2110    -0.0070    -2.3200 ha         1 22C       0.119000
     35 H14         -3.8070     1.1020     4.1640 h1         1 22C       0.039200
     36 H15         -2.7080     2.1140     3.2060 h1         1 22C       0.039200
     37 H16         -7.9640     2.0870     3.2630 hc         1 22C       0.009700
     38 H17         -7.9740     1.1900     4.7880 hc         1 22C       0.009700
     39 H18         -7.9720     0.3180     3.2480 hc         1 22C       0.009700
     40 Cl1          4.3800     0.0180     0.1710 cl         1 22C       0.015600
@<TRIPOS>BOND
     1     1    14 1   
     2     1    15 1   
     3     1    22 1   
     4     1    23 1   
     5     2     3 1   
     6     2     6 1   
     7     2    15 1   
     8     3    16 1   
     9     3    24 1   
    10     3    25 1   
    11     4    18 1   
    12     4    19 1   
    13     4    26 1   
    14     4    27 1   
    15     5     6 1   
    16     5    17 1   
    17     5    28 1   
    18     5    29 1   
    19     6    30 1   
    20     6    31 1   
    21     7     8 ar  
    22     7    13 ar  
    23     7    40 1   
    24     8     9 ar  
    25     8    32 1   
    26     9    10 1   
    27     9    11 ar  
    28    11    12 ar  
    29    11    33 1   
    30    12    13 ar  
    31    12    34 1   
    32    13    14 1   
    33    15    21 2   
    34    16    17 1   
    35    16    35 1   
    36    16    36 1   
    37    17    18 1   
    38    18    20 2   
    39    19    37 1   
    40    19    38 1   
    41    19    39 1   
@<TRIPOS>SUBSTRUCTURE
     1 22C         1 TEMP              0 ****  ****    0 ROOT
