@<TRIPOS>MOLECULE
molecule
   47    51     1     0     0
SMALL
bcc


@<TRIPOS>ATOM
      1 CAA          0.0000     0.0000     0.0000 c3         1 22E      -0.046900
      2 CAB          3.1170    -5.0260    -0.2100 c3         1 22E      -0.067900
      3 OAC         -0.3900    -8.1420     2.2560 o          1 22E      -0.527000
      4 OAD          4.9360    -3.3800     0.4350 o          1 22E      -0.622500
      5 CAE         -0.7820   -13.0770     1.8490 ca         1 22E      -0.096000
      6 CAF         -0.4230   -12.2580     2.9060 ca         1 22E      -0.145500
      7 CAG         -1.1160   -12.5270     0.6240 ca         1 22E      -0.145500
      8 CAH          4.1300     0.0000     0.3460 c2         1 22E      -0.015400
      9 CAI         -0.3950   -10.8890     2.7440 ca         1 22E      -0.071000
     10 CAJ         -1.0930   -11.1590     0.4480 ca         1 22E      -0.071000
     11 CAK         -2.3220    -6.3400     0.0690 ca         1 22E      -0.127000
     12 CAL          2.8280     0.0000     0.0000 ce         1 22E      -0.210000
     13 CAM         -2.4520    -4.9650     0.0070 ca         1 22E      -0.076000
     14 CAN          0.1030    -6.2450    -0.0050 ca         1 22E      -0.088000
     15 NAO          4.8090    -1.1720     0.5840 ns         1 22E      -0.462100
     16 NAP         -1.0990    -2.8740    -0.1080 nc         1 22E      -0.562100
     17 CAR         -0.7050    -8.8620     1.3300 c          1 22E       0.644700
     18 CAS         -1.0840    -6.9680     0.0680 ca         1 22E       0.099100
     19 CAT         -0.7310   -10.3280     1.5100 ca         1 22E      -0.134600
     20 CAU          0.8020    -1.2720    -0.1090 cf         1 22E      -0.122800
     21 CAV          2.3110    -3.7560    -0.2970 c2         1 22E       0.013600
     22 CAW          4.3120    -2.3650     0.2060 c          1 22E       0.713500
     23 CAX         -1.2710    -4.2090    -0.0590 ca         1 22E       0.129400
     24 CAY          2.1590    -1.2380    -0.1810 ce         1 22E      -0.068200
     25 CAZ         -0.0040    -4.8620    -0.0760 ca         1 22E      -0.089800
     26 CBA          0.1640    -2.5370    -0.1390 cd         1 22E       0.497900
     27 CBB          2.9930    -2.4410    -0.5000 c3         1 22E      -0.068300
     28 CBC          0.9770    -3.7940    -0.1940 cd         1 22E      -0.204800
     29 HAA         -1.0570    -0.2340    -0.0460 hc         1 22E       0.053033
     30 HAAA         0.2590     0.6610    -0.8180 hc         1 22E       0.053033
     31 HAAB         0.2210     0.4870     0.9420 hc         1 22E       0.053033
     32 HAB          4.1060    -4.8550    -0.6170 hc         1 22E       0.065033
     33 HABA         3.2010    -5.3300     0.8270 hc         1 22E       0.065033
     34 HABB         2.6230    -5.8070    -0.7760 hc         1 22E       0.065033
     35 HAF         -0.1620   -12.6950     3.8630 ha         1 22E       0.137000
     36 HAG         -1.3960   -13.1720    -0.2000 ha         1 22E       0.137000
     37 HAH          4.6530     0.9440     0.4390 h4         1 22E       0.152000
     38 HAI         -0.1140   -10.2500     3.5720 ha         1 22E       0.152500
     39 HAJ         -1.3550   -10.7310    -0.5120 ha         1 22E       0.152500
     40 HAK         -3.2160    -6.9480     0.1270 ha         1 22E       0.141000
     41 HAL          2.2630     0.9240     0.0180 ha         1 22E       0.157000
     42 HAM         -3.4260    -4.4900     0.0090 ha         1 22E       0.152000
     43 HAN          1.0670    -6.7380    -0.0060 ha         1 22E       0.149000
     44 HNAO         5.6940    -1.1370     1.0500 hn         1 22E       0.339500
     45 HBB          3.2130    -2.3800    -1.5590 hc         1 22E       0.110700
     46 OAQ         -1.0290    -8.3250     0.1380 os         1 22E      -0.342200
     47 HAE         -0.8020   -14.1520     1.9810 ha         1 22E       0.133000
@<TRIPOS>BOND
     1     1    20 1   
     2     2    21 1   
     3     3    17 2   
     4     4    22 2   
     5     5     6 ar  
     6     5     7 ar  
     7     6     9 ar  
     8     7    10 ar  
     9     8    12 2   
    10     8    15 1   
    11     9    19 ar  
    12    10    19 ar  
    13    11    13 ar  
    14    11    18 ar  
    15    12    24 1   
    16    13    23 ar  
    17    14    18 ar  
    18    14    25 ar  
    19    15    22 1   
    20    16    23 1   
    21    16    26 2   
    22    46    17 1   
    23    46    18 1   
    24    17    19 1   
    25    20    24 2   
    26    20    26 1   
    27    21    27 1   
    28    21    28 2   
    29    22    27 1   
    30    23    25 ar  
    31    24    27 1   
    32    25    28 1   
    33    26    28 1   
    34     1    29 1   
    35     1    30 1   
    36     1    31 1   
    37     2    32 1   
    38     2    33 1   
    39     2    34 1   
    40     5    47 1   
    41     6    35 1   
    42     7    36 1   
    43     8    37 1   
    44     9    38 1   
    45    10    39 1   
    46    11    40 1   
    47    12    41 1   
    48    13    42 1   
    49    14    43 1   
    50    15    44 1   
    51    27    45 1   
@<TRIPOS>SUBSTRUCTURE
     1 22E         1 TEMP              0 ****  ****    0 ROOT
