@<TRIPOS>MOLECULE
22F
   23    24     1     0     0
SMALL
bcc


@<TRIPOS>ATOM
      1 F15        -0.0180   -0.2230    0.0750 f         1 22F     -0.132900
      2 C12         1.3320   -0.1440    0.0510 ca        1 22F      0.155900
      3 C11         2.0610   -0.2480    1.2520 ca        1 22F     -0.181000
      4 C10         3.4480   -0.1600    1.2200 ca        1 22F     -0.057500
      5 C13         2.0030    0.0380   -1.1730 ca        1 22F     -0.181000
      6 C14         3.3900    0.1150   -1.1860 ca        1 22F     -0.057500
      7 C9          4.1230    0.0260    0.0070 ca        1 22F     -0.189600
      8 C7          5.5970    0.1000   -0.0560 c         1 22F      0.587300
      9 O8          6.2160   -0.2160   -1.0800 o         1 22F     -0.517100
     10 C1          6.3170    0.5680    1.1530 ca        1 22F     -0.127600
     11 C6          7.5350   -0.0290    1.5080 ca        1 22F     -0.207800
     12 C5          8.2080    0.4480    2.6470 ca        1 22F      0.386700
     13 N4          7.7520    1.4590    3.4120 nb        1 22F     -0.647000
     14 C3          6.5870    2.0300    3.0510 ca        1 22F      0.386700
     15 C2          5.8320    1.6210    1.9360 ca        1 22F     -0.207800
     16 H11         1.5280   -0.4000    2.2010 ha        1 22F      0.155500
     17 H10         4.0190   -0.2460    2.1590 ha        1 22F      0.154000
     18 H13         1.4250    0.1130   -2.1060 ha        1 22F      0.155500
     19 H14         3.9300    0.2400   -2.1390 ha        1 22F      0.154000
     20 H6          7.9550   -0.8430    0.9010 ha        1 22F      0.156500
     21 H5          9.1680    0.0010    2.9630 h4        1 22F      0.028100
     22 H3          6.2410    2.8620    3.6900 h4        1 22F      0.028100
     23 H2          4.8880    2.1240    1.6860 ha        1 22F      0.156500
@<TRIPOS>BOND
     1    1    2 1   
     2    2    3 ar  
     3    2    5 ar  
     4    3    4 ar  
     5    3   16 1   
     6    4    7 ar  
     7    4   17 1   
     8    5    6 ar  
     9    5   18 1   
    10    6    7 ar  
    11    6   19 1   
    12    7    8 1   
    13    8    9 2   
    14    8   10 1   
    15   10   11 ar  
    16   10   15 ar  
    17   11   12 ar  
    18   11   20 1   
    19   12   13 ar  
    20   12   21 1   
    21   13   14 ar  
    22   14   15 ar  
    23   14   22 1   
    24   15   23 1   
@<TRIPOS>SUBSTRUCTURE
     1 22F         1 TEMP              0 ****  ****    0 ROOT
