@<TRIPOS>MOLECULE
molecule
   23    24     1     0     0
SMALL
bcc


@<TRIPOS>ATOM
      1 F15          0.0000     0.0000     0.0000 f          1 22F      -0.134900
      2 C12          1.3520     0.0000     0.0000 ca         1 22F       0.161900
      3 C11          2.0430     0.0000     1.2030 ca         1 22F      -0.181000
      4 C10          3.4200     0.0010     1.2100 ca         1 22F      -0.058500
      5 C13          2.0430    -0.0050    -1.2030 ca         1 22F      -0.181000
      6 C14          3.4200    -0.0050    -1.2090 ca         1 22F      -0.058500
      7 C9           4.1210     0.0020     0.0010 ca         1 22F      -0.188600
      8 C7           5.5980     0.0030     0.0020 c          1 22F       0.591300
      9 O8           6.2060    -0.4000    -0.9710 o          1 22F      -0.514100
     10 C1           6.3370     0.4950     1.1860 ca         1 22F      -0.131600
     11 C6           7.6610     0.1070     1.4200 ca         1 22F      -0.215300
     12 C5           8.3130     0.5910     2.5370 ca         1 22F       0.411700
     13 N4           7.7050     1.4050     3.3760 nb         1 22F      -0.674000
     14 C3           6.4580     1.7960     3.1940 ca         1 22F       0.411700
     15 C2           5.7330     1.3660     2.1000 ca         1 22F      -0.215300
     16 H11          1.4970    -0.0000     2.1390 ha         1 22F       0.151500
     17 H10          3.9580     0.0040     2.1500 ha         1 22F       0.154500
     18 H13          1.4980    -0.0100    -2.1390 ha         1 22F       0.151500
     19 H14          3.9590    -0.0070    -2.1480 ha         1 22F       0.154500
     20 H6           8.1670    -0.5610     0.7340 ha         1 22F       0.154500
     21 H5           9.3380     0.2970     2.7270 h4         1 22F       0.028600
     22 H3           5.9990     2.4680     3.9090 h4         1 22F       0.028600
     23 H2           4.7100     1.6900     1.9570 ha         1 22F       0.154500
@<TRIPOS>BOND
     1     2     1 1
     2     3     2 ar
     3     2     5 ar
     4     4     3 ar
     5     3    16 1
     6     4     7 ar
     7     4    17 1
     8     6     5 ar
     9     5    18 1
    10     7     6 ar
    11     6    19 1
    12     8     7 1
    13    10     8 1
    14     8     9 2
    15    15    10 ar
    16    11    10 ar
    17    12    11 ar
    18    11    20 1
    19    13    12 ar
    20    12    21 1
    21    14    13 ar
    22    14    15 ar
    23    14    22 1
    24    15    23 1
@<TRIPOS>SUBSTRUCTURE
     1 22F         1 TEMP              0 ****  ****    0 ROOT
