@<TRIPOS>MOLECULE
molecule
   43    42     1     0     0
SMALL
bcc


@<TRIPOS>ATOM
      1 CAA          0.0000     0.0000     0.0000 c3         1 22H      -0.159100
      2 CAB          2.6510    -4.1410     0.2940 c3         1 22H      -0.103100
      3 CAL          4.1570     0.6090     2.4730 c3         1 22H       0.121400
      4 CAM          7.7260    -2.8580     0.7880 c3         1 22H       0.189400
      5 CAQ          1.5070     0.0000     0.0000 c          1 22H       0.632100
      6 CAR          1.6750    -2.5780    -1.3670 c          1 22H       0.893600
      7 CAS          2.4200    -2.6700    -0.0590 c3         1 22H       0.029100
      8 CAT          6.1960    -2.8570     0.7890 c3         1 22H       0.121100
      9 CAU          3.6470    -0.0000     1.1660 c3         1 22H       0.095700
     10 CAV          5.6860    -1.4370     1.0390 c3         1 22H       0.156100
     11 CAW          4.1570    -1.4370     1.0400 c3         1 22H       0.136100
     12 NAN          2.1820     0.0000     1.1670 ns         1 22H      -0.602900
     13 OAC          2.1130    -0.0000    -1.0510 o          1 22H      -0.513100
     14 OAE          9.9350    -6.0300    -0.2010 o          1 22H      -0.920833
     15 OAH          5.7200    -3.7240     1.8210 oh         1 22H      -0.647800
     16 OAI          6.1620    -0.5710     0.0060 oh         1 22H      -0.584800
     17 OAJ         10.4530    -4.3940     1.7910 o          1 22H      -0.920833
     18 OAK         10.4220    -3.5860    -0.6000 o          1 22H      -0.920833
     19 OAP          3.6790    -2.0070    -0.1810 os         1 22H      -0.349600
     20 PAX          9.7670    -4.5230     0.3400 p5         1 22H       1.199900
     21 H1          -0.3610    -0.0930    -1.0170 hc         1 22H       0.046700
     22 H2          -0.3610    -0.8340     0.5890 hc         1 22H       0.046700
     23 H3          -0.3610     0.9270     0.4280 hc         1 22H       0.046700
     24 H4           1.8740    -4.7470    -0.1580 hc         1 22H       0.029700
     25 H5           3.6170    -4.4550    -0.0810 hc         1 22H       0.029700
     26 H6           2.6240    -4.2630     1.3700 hc         1 22H       0.029700
     27 H7           3.7250     1.5940     2.6050 h1         1 22H       0.014200
     28 H8           8.0880    -2.5940     1.7740 h1         1 22H       0.011700
     29 H9           8.0870    -2.1360     0.0660 h1         1 22H       0.011700
     30 H10          1.8370    -2.1990     0.7230 h1         1 22H       0.010700
     31 H11          5.8340    -3.2070    -0.1710 h1         1 22H       0.078700
     32 H12          4.0070     0.5850     0.3290 h1         1 22H       0.100700
     33 H13          6.0480    -1.0880     1.9990 h1         1 22H       0.019700
     34 H14          3.7960    -2.0230     1.8770 h1         1 22H       0.061700
     35 H15          1.6820     0.0460     2.0330 hn         1 22H       0.289500
     36 H18          5.9740    -4.6110     1.6290 ho         1 22H       0.427000
     37 H19          6.8650    -0.0390     0.3410 ho         1 22H       0.378000
     38 H21          5.2370     0.6910     2.4360 h1         1 22H       0.014200
     39 H22          3.8640     0.2540     4.3750 ho         1 22H       0.375000
     40 OAO          8.2020    -4.1580     0.4390 os         1 22H      -0.585200
     41 OAD          2.2070    -2.0830    -2.3310 o          1 22H      -0.846300
     42 OAF          3.7790    -0.2270     3.5690 oh         1 22H      -0.597800
     43 OAG          0.4200    -3.0460    -1.4580 o          1 22H      -0.846300
@<TRIPOS>BOND
     1    13     5 2
     2     2     7 1
     3     5    12 1
     4     5     1 1
     5    41     6 1
     6    43     6 1
     7     6     7 1
     8     7    19 1
     9    12     9 1
    10    19    11 1
    11     9    11 1
    12     9     3 1
    13    11    10 1
    14    15     8 1
    15    42     3 1
    16     8    10 1
    17     8     4 1
    18    10    16 1
    19     4    40 1
    20    40    20 1
    21    20    18 1
    22    20    17 1
    23    20    14 1
    24     1    21 1
    25     1    22 1
    26     1    23 1
    27     2    24 1
    28     2    25 1
    29     2    26 1
    30     3    27 1
    31     4    28 1
    32     4    29 1
    33     7    30 1
    34     8    31 1
    35     9    32 1
    36    10    33 1
    37    11    34 1
    38    12    35 1
    39    15    36 1
    40    16    37 1
    41     3    38 1
    42    42    39 1
@<TRIPOS>SUBSTRUCTURE
     1 22H         1 TEMP              0 ****  ****    0 ROOT
