@<TRIPOS>MOLECULE
22J
   25    25     1     0     0
SMALL
bcc


@<TRIPOS>ATOM
      1 OA1        -0.3900    1.3630   -1.3590 o         1 22J     -0.800300
      2 CA1         0.5220    0.5690   -1.0080 c         1 22J      0.866600
      3 OA2         0.5200   -0.1860   -0.0050 o         1 22J     -0.800300
      4 CA2         1.7750    0.5160   -1.9130 c         1 22J      0.431300
      5 OA3         2.6250    1.4130   -1.9500 o         1 22J     -0.560100
      6 CA3         1.9440   -0.7400   -2.6770 ce        1 22J     -0.152200
      7 CA4         1.5960   -1.0330   -3.9290 c2        1 22J     -0.217200
      8 CA5         0.9340   -0.1660   -4.9610 c3        1 22J      0.134800
      9 FA5        -0.3750    0.1420   -4.6340 f         1 22J     -0.217300
     10 CA6         1.7750    1.0710   -5.3160 c         1 22J      0.571700
     11 OA4         2.9230    0.9100   -5.7420 o         1 22J     -0.518100
     12 CB1         1.1500    2.4080   -5.2280 ca        1 22J     -0.199600
     13 CB6         0.4500    2.8070   -4.0850 ca        1 22J     -0.033000
     14 CB3        -0.1000    4.0880   -4.0050 ca        1 22J     -0.147000
     15 CB4         0.0330    4.9800   -5.0650 ca        1 22J     -0.099000
     16 CB5         0.7170    4.6050   -6.2180 ca        1 22J     -0.202000
     17 CB2         1.2820    3.3200   -6.3020 ca        1 22J      0.154900
     18 FB2         1.9380    2.9670   -7.4340 f         1 22J     -0.145900
     19 H3          2.3930   -1.5320   -2.0440 ha        1 22J      0.141000
     20 H5          1.7810   -2.0540   -4.3060 ha        1 22J      0.112000
     21 H6          0.8940   -0.7630   -5.9290 h1        1 22J      0.052700
     22 H7          0.3220    2.1100   -3.2250 ha        1 22J      0.220000
     23 H8         -0.6390    4.3780   -3.0900 ha        1 22J      0.153000
     24 H9         -0.4020    5.9880   -4.9970 ha        1 22J      0.122000
     25 H10         0.8260    5.2990   -7.0620 ha        1 22J      0.132000
@<TRIPOS>BOND
     1    1    2 1   
     2    2    3 1   
     3    2    4 1   
     4    4    5 2   
     5    4    6 1   
     6    6    7 2   
     7    6   19 1   
     8    7    8 1   
     9    7   20 1   
    10    8    9 1   
    11    8   10 1   
    12    8   21 1   
    13   10   11 2   
    14   10   12 1   
    15   12   13 ar  
    16   12   17 ar  
    17   13   14 ar  
    18   13   22 1   
    19   14   15 ar  
    20   14   23 1   
    21   15   16 ar  
    22   15   24 1   
    23   16   17 ar  
    24   16   25 1   
    25   17   18 1   
@<TRIPOS>SUBSTRUCTURE
     1 22J         1 TEMP              0 ****  ****    0 ROOT
