@<TRIPOS>MOLECULE
molecule
   25    25     1     0     0
SMALL
bcc


@<TRIPOS>ATOM
      1 OA1          0.0000     0.0000     0.0000 o          1 22J      -0.809300
      2 CA1          1.2130     0.0000     0.0000 c          1 22J       0.811600
      3 OA2          1.8860     0.0000     1.1650 o          1 22J      -0.809300
      4 CA2          1.9590    -0.0070    -1.2930 c          1 22J       0.456300
      5 OA3          3.1730    -0.0080    -1.2930 o          1 22J      -0.534100
      6 CA3          1.2260    -0.0140    -2.5620 ce         1 22J      -0.177200
      7 CA4          1.8950    -0.0200    -3.7190 c2         1 22J      -0.226200
      8 CA5          1.1410    -0.0260    -5.0250 c3         1 22J       0.118800
      9 FA5         -0.2310     0.0900    -4.7720 f          1 22J      -0.239300
     10 CA6          1.5960     1.1330    -5.8730 c          1 22J       0.567700
     11 OA4          2.4630     0.9710    -6.7060 o          1 22J      -0.515100
     12 CB1          0.9890     2.4580    -5.6920 ca         1 22J      -0.216600
     13 CB6         -0.0080     2.6510    -4.7280 ca         1 22J      -0.050000
     14 CB3         -0.5720     3.8980    -4.5640 ca         1 22J      -0.160000
     15 CB4         -0.1570     4.9600    -5.3490 ca         1 22J      -0.079000
     16 CB5          0.8270     4.7820    -6.3040 ca         1 22J      -0.199000
     17 CB2          1.4090     3.5400    -6.4790 ca         1 22J       0.187900
     18 FB2          2.3740     3.3680    -7.4080 f          1 22J      -0.122900
     19 H3           0.1430    -0.0140    -2.5620 ha         1 22J       0.156000
     20 H5           2.9780    -0.0190    -3.7190 ha         1 22J       0.161000
     21 H6           1.3340    -0.9550    -5.5480 h1         1 22J       0.082700
     22 H7          -0.3350     1.8220    -4.1120 ha         1 22J       0.185000
     23 H8          -1.3430     4.0470    -3.8180 ha         1 22J       0.142000
     24 H9          -0.6070     5.9370    -5.2150 ha         1 22J       0.129000
     25 H10          1.1480     5.6190    -6.9120 ha         1 22J       0.139000
@<TRIPOS>BOND
     1     1     2 1   
     2     2     3 1   
     3     2     4 1   
     4     9     8 1   
     5     6     4 1   
     6     6     7 2   
     7     4     5 2   
     8    13    14 ar  
     9    13    12 ar  
    10    14    15 ar  
    11     8    10 1   
    12     8     7 1   
    13    10    12 1   
    14    10    11 2   
    15    12    17 ar  
    16    15    16 ar  
    17    17    16 ar  
    18    17    18 1   
    19     6    19 1   
    20     7    20 1   
    21     8    21 1   
    22    13    22 1   
    23    14    23 1   
    24    15    24 1   
    25    16    25 1   
@<TRIPOS>SUBSTRUCTURE
     1 22J         1 TEMP              0 ****  ****    0 ROOT
