@<TRIPOS>MOLECULE
molecule
   45    48     1     0     0
SMALL
bcc


@<TRIPOS>ATOM
      1 C01          0.0000     0.0000     0.0000 cc         1 22K      -0.201800
      2 C02          1.3980     0.0000     0.0000 cd         1 22K       0.393500
      3 N03          1.7930     0.0000     1.3130 na         1 22K       0.018200
      4 N04          0.6430     0.0010     2.1080 nd         1 22K      -0.538100
      5 C05         -0.4160     0.0060     1.3340 cc         1 22K       0.430500
      6 N06          2.3040    -0.0020    -0.9850 nd         1 22K      -0.686000
      7 C07          3.5930    -0.0030    -0.7220 cc         1 22K       0.473600
      8 C08          4.0430    -0.0030     0.5990 cc         1 22K      -0.241200
      9 C09          3.1300    -0.0010     1.6190 cd         1 22K       0.361300
     10 Br10         5.8960    -0.0050     0.9760 br         1 22K      -0.042100
     11 N11          3.5480    -0.0000     2.9330 nv         1 22K      -0.957200
     12 C12         -0.8800     0.0010    -1.1960 cc         1 22K      -0.242100
     13 C13         -0.7840     0.8720    -2.2990 cc         1 22K       0.343200
     14 N14         -1.7300     0.5620    -3.1470 nd         1 22K      -0.521800
     15 N15         -2.4620    -0.5110    -2.6230 na         1 22K       0.069400
     16 C16         -1.9240    -0.8450    -1.4290 cd         1 22K      -0.096300
     17 C17         -3.6090    -1.1600    -3.2610 c3         1 22K       0.060600
     18 C18          4.5880    -0.0040    -1.8530 c3         1 22K      -0.102000
     19 C19          3.8470    -0.1300    -3.1850 c3         1 22K      -0.087400
     20 C20          4.8580    -0.1310    -4.3340 c3         1 22K       0.092500
     21 C21          5.6540     1.1760    -4.3140 c3         1 22K      -0.103400
     22 C22          6.3950     1.3010    -2.9820 c3         1 22K      -0.068400
     23 C23          5.3850     1.3020    -1.8330 c3         1 22K      -0.099400
     24 N24          4.1460    -0.2510    -5.6130 nz         1 22K      -0.807600
     25 H05         -1.4450     0.0130     1.6730 h4         1 22K       0.076800
     26 HN11         3.6560     0.8660     3.4230 hn         1 22K       0.464800
     27 HN1A         3.7500    -0.8650     3.3940 hn         1 22K       0.464800
     28 H13         -0.0530     1.6620    -2.4230 h4         1 22K       0.045100
     29 H16         -2.2640    -1.6370    -0.7730 h4         1 22K       0.178000
     30 H17         -4.4770    -1.0740    -2.6190 h1         1 22K       0.059700
     31 H17A        -3.8140    -0.6810    -4.2110 h1         1 22K       0.059700
     32 H17B        -3.3850    -2.2080    -3.4260 h1         1 22K       0.059700
     33 H18          5.2680    -0.8400    -1.7410 hc         1 22K       0.082700
     34 H19          3.2860    -1.0560    -3.1980 hc         1 22K       0.079200
     35 H19A         3.1710     0.7090    -3.3010 hc         1 22K       0.079200
     36 H20          5.5370    -0.9670    -4.2130 hx         1 22K       0.113700
     37 H21          6.3710     1.1730    -5.1260 hc         1 22K       0.063200
     38 H21A         4.9740     2.0120    -4.4280 hc         1 22K       0.063200
     39 H22          6.9570     2.2270    -2.9680 hc         1 22K       0.070700
     40 H22A         7.0700     0.4610    -2.8660 hc         1 22K       0.070700
     41 H23          5.9120     1.3880    -0.8900 hc         1 22K       0.079200
     42 H23A         4.7070     2.1390    -1.9510 hc         1 22K       0.079200
     43 HN24         3.6250    -1.1060    -5.6260 hn         1 22K       0.453800
     44 HN2A         4.8070    -0.2520    -6.3640 hn         1 22K       0.453800
     45 H243         3.5200     0.5220    -5.7200 hn         1 22K       0.453800
@<TRIPOS>BOND
     1     5     1 1
     2     1     2 2
     3     1    12 1
     4     3     2 1
     5     2     6 1
     6     4     3 1
     7     9     3 1
     8     4     5 2
     9     5    25 1
    10     6     7 2
    11     8     7 1
    12     7    18 1
    13     9     8 2
    14     8    10 1
    15    11     9 1
    16    11    26 1
    17    11    27 1
    18    12    13 1
    19    12    16 2
    20    13    14 2
    21    13    28 1
    22    14    15 1
    23    16    15 1
    24    15    17 1
    25    16    29 1
    26    17    30 1
    27    17    31 1
    28    17    32 1
    29    23    18 1
    30    18    19 1
    31    18    33 1
    32    19    20 1
    33    19    34 1
    34    19    35 1
    35    21    20 1
    36    20    24 1
    37    20    36 1
    38    22    21 1
    39    21    37 1
    40    21    38 1
    41    23    22 1
    42    22    39 1
    43    22    40 1
    44    23    41 1
    45    23    42 1
    46    24    43 1
    47    24    44 1
    48    45    24 1
@<TRIPOS>SUBSTRUCTURE
     1 22K         1 TEMP              0 ****  ****    0 ROOT
