@<TRIPOS>MOLECULE
molecule
   24    26     1     0     0
SMALL
bcc


@<TRIPOS>ATOM
      1 C1           0.0000     0.0000     0.0000 ca         1 22L      -0.121000
      2 C2           1.3830     0.0000     0.0000 ca         1 22L      -0.134000
      3 C3           2.0760     0.0000     1.1930 ca         1 22L      -0.091000
      4 C7           2.1180    -0.0010     3.6860 cc         1 22L       0.011000
      5 C8           3.1030    -0.8590     3.9520 cd         1 22L      -0.093100
      6 C10          2.6590     0.7470     5.8610 cd         1 22L       0.258300
      7 C11          1.8330     0.9390     4.7600 cc         1 22L      -0.240600
      8 C12          0.8660     1.9890     4.8270 c          1 22L       0.715100
      9 C15          1.6380     2.4960     6.9840 cc         1 22L       0.505800
     10 C4           1.3800    -0.0010     2.4010 ca         1 22L      -0.036000
     11 C5          -0.0150    -0.0010     2.3950 ca         1 22L      -0.091000
     12 C6          -0.6970     0.0050     1.1950 ca         1 22L      -0.134000
     13 S9           3.7620    -0.5890     5.5540 ss         1 22L      -0.073800
     14 O13          0.1160     2.2020     3.8900 o          1 22L      -0.625500
     15 N14          0.8000     2.7380     5.9440 ns         1 22L      -0.462400
     16 N16          2.5210     1.5420     6.9430 nd         1 22L      -0.627100
     17 H1          -0.5400     0.0020    -0.9390 ha         1 22L       0.126000
     18 H2           1.9230    -0.0020    -0.9390 ha         1 22L       0.129000
     19 H3           3.1590     0.0000     1.1910 ha         1 22L       0.134500
     20 H4           3.4510    -1.6240     3.2680 h4         1 22L       0.183000
     21 H5           1.5670     3.1110     7.8720 h5         1 22L       0.062800
     22 H6          -0.5620     0.0010     3.3300 ha         1 22L       0.134500
     23 H7          -1.7800     0.0050     1.1890 ha         1 22L       0.129000
     24 H8           0.1310     3.4800     6.0060 hn         1 22L       0.341500
@<TRIPOS>BOND
     1     9    16 2
     2     9    15 1
     3    16     6 1
     4    15     8 1
     5     6     7 2
     6     6    13 1
     7     8    14 2
     8     8     7 1
     9     7     4 1
    10    13     5 1
    11     4     5 2
    12     4    10 1
    13    11    10 ar
    14    11    12 ar
    15    10     3 ar
    16    12     1 ar
    17     3     2 ar
    18     1     2 ar
    19     1    17 1
    20     2    18 1
    21     3    19 1
    22     5    20 1
    23     9    21 1
    24    11    22 1
    25    12    23 1
    26    15    24 1
@<TRIPOS>SUBSTRUCTURE
     1 22L         1 TEMP              0 ****  ****    0 ROOT
