@<TRIPOS>MOLECULE
22L
   24    26     1     0     0
SMALL
bcc


@<TRIPOS>ATOM
      1 C1           0.0000     0.0000     0.0000 ca         1 22L      -0.094000
      2 C2           1.3830     0.0000     0.0000 ca         1 22L      -0.106500
      3 C3           2.0760     0.0000     1.1930 ca         1 22L      -0.067500
      4 C7           2.1180    -0.0010     3.6860 cc         1 22L       0.030000
      5 C8           3.1030    -0.8590     3.9520 cd         1 22L      -0.013100
      6 C10          2.6590     0.7470     5.8610 cd         1 22L       0.271300
      7 C11          1.8330     0.9390     4.7600 cc         1 22L      -0.241600
      8 C12          0.8660     1.9890     4.8270 c          1 22L       0.619100
      9 C15          1.6380     2.4960     6.9840 cc         1 22L       0.326800
     10 C4           1.3800    -0.0010     2.4010 ca         1 22L      -0.038000
     11 C5          -0.0150    -0.0010     2.3950 ca         1 22L      -0.067500
     12 C6          -0.6970     0.0050     1.1950 ca         1 22L      -0.106500
     13 S9           3.7620    -0.5890     5.5540 ss         1 22L      -0.225800
     14 O13          0.1160     2.2020     3.8900 o          1 22L      -0.668500
     15 N14          0.8000     2.7380     5.9440 ns         1 22L       0.010600
     16 N16          2.5210     1.5420     6.9430 nd         1 22L      -0.503100
     17 H1          -0.5400     0.0020    -0.9390 ha         1 22L       0.099000
     18 H2           1.9230    -0.0020    -0.9390 ha         1 22L       0.101500
     19 H3           3.1590     0.0000     1.1910 ha         1 22L       0.108000
     20 H4           3.4510    -1.6240     3.2680 h4         1 22L       0.161000
     21 H5           1.5670     3.1110     7.8720 h5         1 22L       0.010800
     22 H6          -0.5620     0.0010     3.3300 ha         1 22L       0.108000
     23 H7          -1.7800     0.0050     1.1890 ha         1 22L       0.101500
     24 H8           0.1310     3.4800     6.0060 hn         1 22L       0.184500
@<TRIPOS>BOND
     1     1     2 ar  
     2     1    12 ar  
     3     1    17 1   
     4     2     3 ar  
     5     2    18 1   
     6     3    10 ar  
     7     3    19 1   
     8     4     5 2   
     9     4     7 1   
    10     4    10 1   
    11     5    13 1   
    12     5    20 1   
    13     6     7 2   
    14     6    13 1   
    15     6    16 1   
    16     7     8 1   
    17     8    14 2   
    18     8    15 1   
    19     9    15 1   
    20     9    16 2   
    21     9    21 1   
    22    10    11 ar  
    23    11    12 ar  
    24    11    22 1   
    25    12    23 1   
    26    15    24 1   
@<TRIPOS>SUBSTRUCTURE
     1 22L         1 TEMP              0 ****  ****    0 ROOT
