@<TRIPOS>MOLECULE
22M
   35    37     1     0     0
SMALL
bcc


@<TRIPOS>ATOM
      1 C1           0.0000     0.0000     0.0000 ca         1 22M      -0.210000
      2 C2           1.4010     0.0000     0.0000 ca         1 22M      -0.167900
      3 C3           2.1360    -0.0000    -1.2820 ce         1 22M       0.223800
      4 N4           3.4400     0.0000    -1.2860 n2         1 22M      -0.520100
      5 N5           1.4450    -0.0000    -2.4740 nz         1 22M       0.195400
      6 C6           2.1030     0.0000     1.2010 ca         1 22M      -0.038000
      7 C7           1.4100     0.0010     2.4030 ca         1 22M      -0.273200
      8 C8           0.0010     0.0000     2.3930 ca         1 22M      -0.070800
      9 C9          -0.6900     0.0000     1.1750 ca         1 22M      -0.015000
     10 C10         -0.4170    -0.0040     3.7470 cc         1 22M      -0.154200
     11 C11          0.6930     0.0000     4.5250 cd         1 22M      -0.117300
     12 C12          0.7020     0.0000     6.0040 ca         1 22M      -0.068800
     13 C13         -0.1370    -0.8640     6.7090 ca         1 22M      -0.065000
     14 C14         -0.1240    -0.8590     8.0890 ca         1 22M      -0.097000
     15 C15          0.7220    -0.0050     8.7730 ca         1 22M      -0.069000
     16 C16          1.5610     0.8500     8.0800 ca         1 22M      -0.091000
     17 C17          1.5580     0.8550     6.7000 ca         1 22M      -0.081300
     18 C18          2.4720     1.7870     5.9460 c3         1 22M       0.053200
     19 N19          1.8110     0.0000     3.7240 na         1 22M       0.385600
     20 H1          -0.8470    -0.0040    -0.6750 ha         1 22M       0.135000
     21 HN4          3.9450     0.0010    -0.4220 hn         1 22M       0.376400
     22 HN51         2.0930    -0.0090    -3.2360 hn         1 22M       0.219133
     23 HN52         0.8630    -0.8130    -2.5230 hn         1 22M       0.219133
     24 H6           3.1310    -0.0860     1.5330 ha         1 22M       0.122000
     25 H9          -1.7720    -0.0010     1.2260 ha         1 22M       0.120000
     26 H10         -1.4390     0.0810     4.0970 ha         1 22M       0.148000
     27 H13         -0.8000    -1.5330     6.1750 ha         1 22M       0.112000
     28 H14         -0.7760    -1.5280     8.6380 ha         1 22M       0.114000
     29 H15          0.7290    -0.0060     9.8560 ha         1 22M       0.113000
     30 H16          2.2230     1.5140     8.6220 ha         1 22M       0.116000
     31 H181         2.8340     2.5570     6.6160 hc         1 22M       0.010033
     32 H182         3.3120     1.2280     5.5510 hc         1 22M       0.010033
     33 H183         1.9270     2.2450     5.1290 hc         1 22M       0.010033
     34 HN19         2.7590     0.0030     4.0450 hn         1 22M       0.136700
     35 H53          0.8760     0.8220    -2.5310 hn         1 22M       0.219133
@<TRIPOS>BOND
     1     1     2 ar  
     2     1     9 ar  
     3     1    20 1   
     4     2     3 1   
     5     2     6 ar  
     6     3     4 2   
     7     3     5 1   
     8     4    21 1   
     9     5    22 1   
    10     5    23 1   
    11     5    35 1   
    12     6     7 ar  
    13     6    24 1   
    14     7     8 ar  
    15     7    19 1   
    16     8     9 ar  
    17     8    10 1   
    18     9    25 1   
    19    10    11 2   
    20    10    26 1   
    21    11    12 1   
    22    11    19 1   
    23    12    13 ar  
    24    12    17 ar  
    25    13    14 ar  
    26    13    27 1   
    27    14    15 ar  
    28    14    28 1   
    29    15    16 ar  
    30    15    29 1   
    31    16    17 ar  
    32    16    30 1   
    33    17    18 1   
    34    18    31 1   
    35    18    32 1   
    36    18    33 1   
    37    19    34 1   
@<TRIPOS>SUBSTRUCTURE
     1 22M         1 TEMP              0 ****  ****    0 ROOT
