@<TRIPOS>MOLECULE
molecule
   35    37     1     0     0
SMALL
bcc


@<TRIPOS>ATOM
      1 C1           0.0000     0.0000     0.0000 ca         1 22M      -0.180000
      2 C2           1.4010     0.0000     0.0000 ca         1 22M      -0.198900
      3 C3           2.1360    -0.0000    -1.2820 ce         1 22M       0.554800
      4 N4           3.4400     0.0000    -1.2860 n2         1 22M      -0.708100
      5 N5           1.4450    -0.0000    -2.4740 nz         1 22M      -0.798600
      6 C6           2.1030     0.0000     1.2010 ca         1 22M      -0.021000
      7 C7           1.4100     0.0010     2.4030 ca         1 22M      -0.070200
      8 C8           0.0010     0.0000     2.3930 ca         1 22M      -0.055800
      9 C9          -0.6900     0.0000     1.1750 ca         1 22M      -0.061000
     10 C10         -0.4170    -0.0040     3.7470 cc         1 22M      -0.195200
     11 C11          0.6930     0.0000     4.5250 cd         1 22M       0.067700
     12 C12          0.7020     0.0000     6.0040 ca         1 22M      -0.079800
     13 C13         -0.1370    -0.8640     6.7090 ca         1 22M      -0.090000
     14 C14         -0.1240    -0.8590     8.0890 ca         1 22M      -0.127000
     15 C15          0.7220    -0.0050     8.7730 ca         1 22M      -0.097000
     16 C16          1.5610     0.8500     8.0800 ca         1 22M      -0.122000
     17 C17          1.5580     0.8550     6.7000 ca         1 22M      -0.065300
     18 C18          2.4720     1.7870     5.9460 c3         1 22M      -0.055800
     19 N19          1.8110     0.0000     3.7240 na         1 22M      -0.154400
     20 H1          -0.6480    -0.0090    -0.8680 ha         1 22M       0.113000
     21 HN4          3.9380     0.0010    -2.1540 hn         1 22M       0.426400
     22 HN51         0.8790    -0.8240    -2.5320 hn         1 22M       0.463467
     23 HN52         0.8590     0.8100    -2.5200 hn         1 22M       0.463467
     24 H6           3.1850    -0.0540     1.1740 ha         1 22M       0.162000
     25 H9          -1.7720    -0.0030     1.2290 ha         1 22M       0.156000
     26 H10         -1.4380    -0.1000     4.0970 ha         1 22M       0.175000
     27 H13         -0.8000    -1.5330     6.1750 ha         1 22M       0.139000
     28 H14         -0.7760    -1.5280     8.6380 ha         1 22M       0.145000
     29 H15          0.7280    -0.0050     9.8560 ha         1 22M       0.144000
     30 H16          2.2230     1.5140     8.6220 ha         1 22M       0.144000
     31 H181         1.9270     2.2440     5.1290 hc         1 22M       0.047367
     32 H182         3.3120     1.2280     5.5520 hc         1 22M       0.047367
     33 H183         2.8340     2.5580     6.6150 hc         1 22M       0.047367
     34 HN19         2.7590     0.0030     4.0450 hn         1 22M       0.319700
     35 H53          2.0930     0.0130    -3.2360 hn         1 22M       0.463467
@<TRIPOS>BOND
     1     1     2 ar
     2     1     9 ar
     3     1    20 1
     4     2     3 1
     5     2     6 ar
     6     3     4 2
     7     3     5 1
     8     4    21 1
     9     5    22 1
    10     5    23 1
    11     6     7 ar
    12     6    24 1
    13     7     8 ar
    14     7    19 1
    15     8     9 ar
    16     8    10 1
    17     9    25 1
    18    10    11 2
    19    10    26 1
    20    11    12 1
    21    11    19 1
    22    12    13 ar
    23    12    17 ar
    24    13    14 ar
    25    13    27 1
    26    14    15 ar
    27    14    28 1
    28    15    16 ar
    29    15    29 1
    30    16    17 ar
    31    16    30 1
    32    17    18 1
    33    18    31 1
    34    18    32 1
    35    18    33 1
    36    19    34 1
    37    35     5 1
@<TRIPOS>SUBSTRUCTURE
     1 22M         1 TEMP              0 ****  ****    0 ROOT
