@<TRIPOS>MOLECULE
22N
   44    44     1     0     0
SMALL
bcc


@<TRIPOS>ATOM
      1 C1           0.0000     0.0000     0.0000 c          1 22N       0.962800
      2 O1A          1.3480     0.0000     0.0000 o          1 22N      -0.855800
      3 O1B         -0.6070     0.0000     1.0520 o          1 22N      -0.855800
      4 C2          -0.7350    -0.0050    -1.2730 ce         1 22N      -0.164400
      5 C3           0.0580    -0.0110    -2.5470 c3         1 22N       0.039800
      6 C4          -0.8280    -0.4400    -3.7170 c3         1 22N      -0.107500
      7 C5          -2.1180     0.3890    -3.6820 c3         1 22N       0.018700
      8 N5          -1.7840     1.8140    -3.6010 ns         1 22N      -0.239900
      9 C10         -2.6560     2.7370    -4.0510 c          1 22N       0.584100
     10 O10         -3.7180     2.3890    -4.5220 o          1 22N      -0.619100
     11 C11         -2.3120     4.2030    -3.9680 c3         1 22N      -0.062100
     12 C6          -2.9260    -0.0200    -2.4480 c3         1 22N       0.199300
     13 C7          -2.0510    -0.0100    -1.2290 c2         1 22N      -0.201200
     14 O7          -4.0110     0.8900    -2.2600 os         1 22N      -0.373600
     15 C8          -5.1680     0.3000    -1.6620 c3         1 22N       0.174100
     16 C9          -5.9160     1.3560    -0.8460 c3         1 22N      -0.046900
     17 C81         -6.0870    -0.2440    -2.7580 c3         1 22N      -0.046900
     18 C82         -5.3830    -1.3870    -3.4940 c3         1 22N      -0.001100
     19 C91         -5.0420     1.8090     0.3240 c3         1 22N      -0.001100
     20 N4          -0.1240    -0.2040    -4.9850 nz         1 22N       0.068400
     21 H2           0.8840    -0.7060    -2.4510 hc         1 22N       0.047200
     22 H3           0.4410     0.9850    -2.7350 hc         1 22N       0.047200
     23 H4          -1.0710    -1.4920    -3.6210 hx         1 22N       0.098700
     24 H5          -2.6980     0.1960    -4.5760 h1         1 22N       0.053700
     25 H6          -0.8930     2.0990    -3.2450 hn         1 22N       0.196500
     26 H7          -2.0370     4.4520    -2.9500 hc         1 22N       0.027700
     27 H8          -1.4810     4.4170    -4.6290 hc         1 22N       0.027700
     28 H9          -3.1710     4.7920    -4.2640 hc         1 22N       0.027700
     29 H10         -3.3150    -1.0200    -2.5960 h1         1 22N       0.033700
     30 H11         -2.5290    -0.0100    -0.2570 ha         1 22N       0.165000
     31 H12         -4.8640    -0.5110    -1.0110 h1         1 22N       0.021700
     32 H13         -6.8380     0.9320    -0.4660 hc         1 22N       0.024700
     33 H14         -6.1430     2.2060    -1.4780 hc         1 22N       0.024700
     34 H15         -6.3200     0.5480    -3.4590 hc         1 22N       0.024700
     35 H16         -7.0030    -0.6120    -2.3120 hc         1 22N       0.024700
     36 H17         -4.9090    -2.0420    -2.7730 hc         1 22N       0.004533
     37 H18         -6.1100    -1.9480    -4.0680 hc         1 22N       0.004533
     38 H19         -4.6330    -0.9790    -4.1600 hc         1 22N       0.004533
     39 H20         -4.2190     2.4070    -0.0490 hc         1 22N       0.004533
     40 H21         -5.6350     2.4010     1.0100 hc         1 22N       0.004533
     41 H22         -4.6510     0.9410     0.8410 hc         1 22N       0.004533
     42 H23          0.3180     0.6940    -4.9580 hn         1 22N       0.219133
     43 H24         -0.7800    -0.2310    -5.7410 hn         1 22N       0.219133
     44 H43          0.5690    -0.9130    -5.1190 hn         1 22N       0.219133
@<TRIPOS>BOND
     1     1     2 1   
     2     1     3 1   
     3     1     4 1   
     4     4     5 1   
     5     4    13 2   
     6     5     6 1   
     7     5    21 1   
     8     5    22 1   
     9     6     7 1   
    10     6    20 1   
    11     6    23 1   
    12     7     8 1   
    13     7    12 1   
    14     7    24 1   
    15     8     9 1   
    16     8    25 1   
    17     9    10 2   
    18     9    11 1   
    19    11    26 1   
    20    11    27 1   
    21    11    28 1   
    22    12    13 1   
    23    12    14 1   
    24    12    29 1   
    25    13    30 1   
    26    14    15 1   
    27    15    16 1   
    28    15    17 1   
    29    15    31 1   
    30    16    19 1   
    31    16    32 1   
    32    16    33 1   
    33    17    18 1   
    34    17    34 1   
    35    17    35 1   
    36    18    36 1   
    37    18    37 1   
    38    18    38 1   
    39    19    39 1   
    40    19    40 1   
    41    19    41 1   
    42    20    42 1   
    43    20    43 1   
    44    20    44 1   
@<TRIPOS>SUBSTRUCTURE
     1 22N         1 TEMP              0 ****  ****    0 ROOT
