@<TRIPOS>MOLECULE
molecule
   44    44     1     0     0
SMALL
bcc


@<TRIPOS>ATOM
      1 C1           0.0000     0.0000     0.0000 c          1 22N       0.874800
      2 O1A          1.3480     0.0000     0.0000 o          1 22N      -0.809300
      3 O1B         -0.6070     0.0000     1.0520 o          1 22N      -0.809300
      4 C2          -0.7350    -0.0050    -1.2730 ce         1 22N      -0.152400
      5 C3           0.0580    -0.0110    -2.5470 c3         1 22N      -0.038200
      6 C4          -0.8280    -0.4400    -3.7170 c3         1 22N       0.068500
      7 C5          -2.1180     0.3890    -3.6820 c3         1 22N       0.105700
      8 N5          -1.7840     1.8140    -3.6010 ns         1 22N      -0.601900
      9 C10         -2.6560     2.7370    -4.0510 c          1 22N       0.664100
     10 O10         -3.7180     2.3890    -4.5220 o          1 22N      -0.586100
     11 C11         -2.3120     4.2030    -3.9680 c3         1 22N      -0.167100
     12 C6          -2.9260    -0.0200    -2.4480 c3         1 22N       0.168300
     13 C7          -2.0510    -0.0100    -1.2290 c2         1 22N      -0.199200
     14 O7          -4.0110     0.8900    -2.2600 os         1 22N      -0.390600
     15 C8          -5.1680     0.3000    -1.6620 c3         1 22N       0.144100
     16 C9          -5.9160     1.3560    -0.8460 c3         1 22N      -0.094900
     17 C81         -6.0870    -0.2440    -2.7580 c3         1 22N      -0.094900
     18 C82         -5.3830    -1.3870    -3.4940 c3         1 22N      -0.093600
     19 C91         -5.0420     1.8090     0.3240 c3         1 22N      -0.093600
     20 N4          -0.1240    -0.2040    -4.9850 nz         1 22N      -0.808600
     21 H2           0.8840    -0.7060    -2.4510 hc         1 22N       0.075700
     22 H3           0.4410     0.9850    -2.7350 hc         1 22N       0.075700
     23 H4          -1.0710    -1.4920    -3.6210 hx         1 22N       0.119700
     24 H5          -2.6980     0.1960    -4.5760 h1         1 22N       0.073700
     25 H6          -0.8930     2.0990    -3.2450 hn         1 22N       0.324500
     26 H7          -2.0370     4.4520    -2.9500 hc         1 22N       0.066033
     27 H8          -1.4810     4.4170    -4.6290 hc         1 22N       0.066033
     28 H9          -3.1710     4.7920    -4.2640 hc         1 22N       0.066033
     29 H10         -3.3150    -1.0200    -2.5960 h1         1 22N       0.051700
     30 H11         -2.5290    -0.0100    -0.2570 ha         1 22N       0.187000
     31 H12         -4.8640    -0.5110    -1.0110 h1         1 22N       0.044700
     32 H13         -6.8380     0.9320    -0.4660 hc         1 22N       0.053200
     33 H14         -6.1430     2.2060    -1.4780 hc         1 22N       0.053200
     34 H15         -6.3200     0.5480    -3.4590 hc         1 22N       0.053200
     35 H16         -7.0030    -0.6120    -2.3120 hc         1 22N       0.053200
     36 H17         -4.9090    -2.0420    -2.7730 hc         1 22N       0.035367
     37 H18         -6.1100    -1.9480    -4.0680 hc         1 22N       0.035367
     38 H19         -4.6330    -0.9790    -4.1600 hc         1 22N       0.035367
     39 H20         -4.2190     2.4070    -0.0490 hc         1 22N       0.035367
     40 H21         -5.6350     2.4010     1.0100 hc         1 22N       0.035367
     41 H22         -4.6510     0.9410     0.8410 hc         1 22N       0.035367
     42 H23          0.3180     0.6940    -4.9580 hn         1 22N       0.446133
     43 H24         -0.7800    -0.2310    -5.7410 hn         1 22N       0.446133
     44 H43          0.5690    -0.9130    -5.1190 hn         1 22N       0.446133
@<TRIPOS>BOND
     1    17    18 1   
     2    17    15 1   
     3    16    15 1   
     4    16    19 1   
     5    15    14 1   
     6    14    12 1   
     7    12    13 1   
     8    12     7 1   
     9    13     4 2   
    10     7     6 1   
    11     7     8 1   
    12     2     1 1   
    13     4     1 1   
    14     4     5 1   
    15     6     5 1   
    16     6    20 1   
    17     1     3 1   
    18    10     9 2   
    19     8     9 1   
    20     9    11 1   
    21     5    21 1   
    22     5    22 1   
    23     6    23 1   
    24     7    24 1   
    25     8    25 1   
    26    11    26 1   
    27    11    27 1   
    28    11    28 1   
    29    12    29 1   
    30    13    30 1   
    31    15    31 1   
    32    16    32 1   
    33    16    33 1   
    34    17    34 1   
    35    17    35 1   
    36    18    36 1   
    37    18    37 1   
    38    18    38 1   
    39    19    39 1   
    40    19    40 1   
    41    19    41 1   
    42    20    42 1   
    43    20    43 1   
    44    44    20 1   
@<TRIPOS>SUBSTRUCTURE
     1 22N         1 TEMP              0 ****  ****    0 ROOT
