@<TRIPOS>MOLECULE
molecule
   42    43     1     0     0
SMALL
bcc


@<TRIPOS>ATOM
      1 C1           0.0000     0.0000     0.0000 c3         1 22O       0.308500
      2 N1          -0.4880     0.0580    -1.3800 ns         1 22O      -0.484900
      3 S1          -2.4750    -1.4970    -0.5500 s          1 22O      -0.668400
      4 Br1          2.3840     3.3490    -6.3130 br         1 22O      -0.086100
      5 C2           1.5310     0.0000     0.0000 c3         1 22O       0.097100
      6 N2          -2.0640    -0.5440    -2.9930 ns         1 22O      -0.293900
      7 O2           2.0090    -1.1670    -0.6710 oh         1 22O      -0.589800
      8 C3           2.0330     0.0000     1.4470 c3         1 22O       0.113100
      9 N3          -1.3600     0.1930    -3.9550 n2         1 22O      -0.490300
     10 O3           3.4600     0.0720     1.4580 oh         1 22O      -0.607800
     11 C4           1.4510     1.2130     2.1790 c3         1 22O       0.099100
     12 O4           1.8560     1.1840     3.5490 oh         1 22O      -0.599800
     13 C5          -0.0760     1.1660     2.0950 c3         1 22O       0.156100
     14 O5          -0.4760     1.1370     0.7230 os         1 22O      -0.412600
     15 C6          -0.6620     2.4070     2.7710 c3         1 22O       0.153400
     16 O6          -2.0880     2.3070     2.7960 oh         1 22O      -0.590800
     17 C7          -1.6150    -0.5970    -1.7240 cs         1 22O       0.648400
     18 C8          -1.7930     0.2460    -5.1780 ce         1 22O       0.425800
     19 C9          -1.0520     1.0210    -6.1900 ca         1 22O      -0.135900
     20 C10         -1.5140     1.0790    -7.5070 ca         1 22O      -0.092000
     21 C11         -0.8180     1.8070    -8.4490 ca         1 22O      -0.129000
     22 C12          0.3380     2.4790    -8.0920 ca         1 22O      -0.086000
     23 C13          0.8030     2.4260    -6.7890 ca         1 22O      -0.025900
     24 C14          0.1120     1.7060    -5.8350 ca         1 22O      -0.067000
     25 H1          -0.3590    -0.9040     0.4770 h2         1 22O       0.122700
     26 HN1         -0.0070     0.6150    -2.0580 hn         1 22O       0.334500
     27 H2           1.8910     0.8880    -0.5060 h1         1 22O       0.050700
     28 HN2         -2.8970    -1.0360    -3.2510 hn         1 22O       0.352500
     29 HO2          2.7150    -0.9300    -1.2490 ho         1 22O       0.413000
     30 H3           1.7080    -0.9080     1.9410 h1         1 22O       0.068700
     31 HO3          3.8080    -0.6640     1.9350 ho         1 22O       0.417000
     32 H4           1.8100     2.1220     1.7110 h1         1 22O       0.053700
     33 HO4          2.5580     1.7980     3.6830 ho         1 22O       0.413000
     34 H5          -0.4350     0.2740     2.5920 h1         1 22O       0.075700
     35 H6          -0.2870     2.4760     3.7850 h1         1 22O       0.034700
     36 H6A         -0.3720     3.2910     2.2170 h1         1 22O       0.034700
     37 HO6         -2.4420     2.9920     3.3390 ho         1 22O       0.401000
     38 H8          -2.6980    -0.2800    -5.4550 h4         1 22O      -0.000200
     39 H10         -2.4190     0.5530    -7.7880 ha         1 22O       0.138000
     40 H11         -1.1760     1.8520    -9.4700 ha         1 22O       0.143000
     41 H12          0.8820     3.0500    -8.8360 ha         1 22O       0.148000
     42 H14          0.5130     1.6110    -4.8330 ha         1 22O       0.158000
@<TRIPOS>BOND
     1    14     1 1
     2     2     1 1
     3     5     1 1
     4     1    25 1
     5     2    17 1
     6     2    26 1
     7    17     3 2
     8     4    23 1
     9     5     8 1
    10     5     7 1
    11     5    27 1
    12     9     6 1
    13     6    17 1
    14     6    28 1
    15     7    29 1
    16    10     8 1
    17    11     8 1
    18     8    30 1
    19    18     9 2
    20    10    31 1
    21    11    12 1
    22    11    13 1
    23    11    32 1
    24    12    33 1
    25    14    13 1
    26    15    13 1
    27    13    34 1
    28    16    15 1
    29    15    35 1
    30    15    36 1
    31    16    37 1
    32    19    18 1
    33    18    38 1
    34    24    19 ar
    35    20    19 ar
    36    21    20 ar
    37    20    39 1
    38    22    21 ar
    39    21    40 1
    40    22    23 ar
    41    22    41 1
    42    23    24 ar
    43    24    42 1
@<TRIPOS>SUBSTRUCTURE
     1 22O         1 TEMP              0 ****  ****    0 ROOT
