@<TRIPOS>MOLECULE
22O
   42    44     1     0     0
SMALL
bcc


@<TRIPOS>ATOM
      1 C1           0.0000     0.0000     0.0000 c3         1 22O       0.025000
      2 N1          -0.4880     0.0580    -1.3800 ns         1 22O       0.177000
      3 S1          -2.4750    -1.4970    -0.5500 s          1 22O      -0.383000
      4 Br1          2.3840     3.3490    -6.3130 br         1 22O       0.029000
      5 C2           1.5310     0.0000     0.0000 c3         1 22O       0.023000
      6 N2          -2.0640    -0.5440    -2.9930 ns         1 22O       0.208000
      7 O2           2.0090    -1.1670    -0.6710 oh         1 22O      -0.299000
      8 C3           2.0330     0.0000     1.4470 c3         1 22O       0.039000
      9 N3          -1.3600     0.1930    -3.9550 n2         1 22O      -0.085000
     10 O3           3.4600     0.0720     1.4580 oh         1 22O      -0.317000
     11 C4           1.4510     1.2130     2.1790 c3         1 22O       0.025000
     12 O4           1.8560     1.1840     3.5490 oh         1 22O      -0.305000
     13 C5          -0.0760     1.1660     2.0950 c3         1 22O       0.064000
     14 O5          -0.4760     1.1370     0.7230 os         1 22O      -0.247000
     15 C6          -0.6620     2.4070     2.7710 c3         1 22O       0.074000
     16 O6          -2.0880     2.3070     2.7960 oh         1 22O      -0.301000
     17 C7          -1.6150    -0.5970    -1.7240 c2         1 22O      -0.127000
     18 C8          -1.7930     0.2460    -5.1780 c2         1 22O      -0.403000
     19 C9          -1.0520     1.0210    -6.1900 c3         1 22O      -0.138000
     20 C10         -1.5140     1.0790    -7.5070 c2         1 22O      -0.005000
     21 C11         -0.8180     1.8070    -8.4490 c2         1 22O      -0.115000
     22 C12          0.3380     2.4790    -8.0920 c2         1 22O      -0.039000
     23 C13          0.8030     2.4260    -6.7890 c2         1 22O      -0.126000
     24 C14          0.1120     1.7060    -5.8350 c2         1 22O      -0.077000
     25 H1          -0.3590    -0.9040     0.4770 h2         1 22O       0.142000
     26 HN1         -0.0190     0.6320    -2.0530 hn         1 22O       0.086000
     27 H2           1.8910     0.8880    -0.5060 h1         1 22O       0.055000
     28 HN2         -2.8820    -1.0560    -3.2570 hn         1 22O       0.126000
     29 HO2          2.7150    -0.9300    -1.2490 ho         1 22O       0.198000
     30 H3           1.7080    -0.9080     1.9410 h1         1 22O       0.074000
     31 HO3          3.8080    -0.6630     1.9350 ho         1 22O       0.203000
     32 H4           1.8100     2.1220     1.7110 h1         1 22O       0.058000
     33 HO4          2.5610     1.7950     3.6820 ho         1 22O       0.198000
     34 H5          -0.4350     0.2740     2.5920 h1         1 22O       0.083000
     35 H6          -0.3720     3.2910     2.2170 h1         1 22O       0.035500
     36 H6A         -0.2870     2.4760     3.7850 h1         1 22O       0.035500
     37 HO6         -2.4420     2.9920     3.3390 ho         1 22O       0.186000
     38 H8          -1.8320     1.3240    -5.2720 DU         1 22O       0.325000
     39 H10         -2.4190     0.5530    -7.7880 ha         1 22O       0.127000
     40 H11         -1.1770     1.8520    -9.4700 ha         1 22O       0.117000
     41 H12          0.8820     3.0500    -8.8360 ha         1 22O       0.120000
     42 H14          0.5060     1.6200    -4.8300 ha         1 22O       0.131000
@<TRIPOS>BOND
     1     1     2 1   
     2     1     5 1   
     3     1    14 1   
     4     1    25 1   
     5     2    17 1   
     6     2    26 1   
     7     3    17 1   
     8     4    23 1   
     9     5     7 1   
    10     5     8 1   
    11     5    27 1   
    12     6     9 1   
    13     6    17 1   
    14     6    28 1   
    15     7    29 1   
    16     8    10 1   
    17     8    11 1   
    18     8    30 1   
    19     9    18 1   
    20    10    31 1   
    21    11    12 1   
    22    11    13 1   
    23    11    32 1   
    24    12    33 1   
    25    13    14 1   
    26    13    15 1   
    27    13    34 1   
    28    15    16 1   
    29    15    35 1   
    30    15    36 1   
    31    16    37 1   
    32    18    19 1   
    33    18    38 1   
    34    19    20 1   
    35    19    24 1   
    36    19    38 1   
    37    20    21 1   
    38    20    39 1   
    39    21    22 1   
    40    21    40 1   
    41    22    23 1   
    42    22    41 1   
    43    23    24 1   
    44    24    42 1   
@<TRIPOS>SUBSTRUCTURE
     1 22O         1 TEMP              0 ****  ****    0 ROOT
