@<TRIPOS>MOLECULE
molecule
   30    30     1     0     0
SMALL
bcc


@<TRIPOS>ATOM
      1 O5           1.4290     0.0000     0.0000 oh         1 22P      -0.573800
      2 O6           0.2830    -2.0260    -1.1700 o          1 22P      -0.784800
      3 N9          -0.0200    -1.2000     2.1350 nz         1 22P      -0.799600
      4 C20          0.0000     0.0000     0.0000 c3         1 22P       0.009800
      5 C21         -0.5100     0.0000     1.4420 c3         1 22P       0.078800
      6 C22         -0.5100     1.2500    -0.7210 c3         1 22P      -0.072400
      7 C23         -0.6090     2.4190    -2.9050 ca         1 22P      -0.082300
      8 C24          0.1840     3.5500    -2.9730 ca         1 22P      -0.125000
      9 C25         -0.2750     4.6760    -3.6290 ca         1 22P      -0.130500
     10 C26         -1.5250     4.6720    -4.2180 ca         1 22P      -0.135000
     11 C27         -2.3180     3.5420    -4.1500 ca         1 22P      -0.130500
     12 C28         -1.8590     2.4150    -3.4930 ca         1 22P      -0.125000
     13 C29         -0.5020    -1.2300    -0.7100 c          1 22P       0.861600
     14 C52         -0.1050     1.1880    -2.1950 c3         1 22P      -0.028100
     15 HO5          1.7440     0.7590     0.4630 ho         1 22P       0.376000
     16 HN9          0.9770    -1.2480     2.0550 hn         1 22P       0.452800
     17 HN9A        -0.2750    -1.1540     3.1020 hn         1 22P       0.452800
     18 H21         -0.1480     0.8840     1.9530 hx         1 22P       0.097200
     19 H21A        -1.5930     0.0000     1.4430 hx         1 22P       0.097200
     20 H22         -0.0780     2.1320    -0.2640 hc         1 22P       0.046700
     21 H22A        -1.5900     1.2960    -0.6450 hc         1 22P       0.046700
     22 H24          1.1650     3.5530    -2.5120 ha         1 22P       0.135000
     23 H25          0.3460     5.5630    -3.6830 ha         1 22P       0.126000
     24 H26         -1.8850     5.5560    -4.7320 ha         1 22P       0.125000
     25 H27         -3.2980     3.5390    -4.6110 ha         1 22P       0.126000
     26 H28         -2.4800     1.5280    -3.4390 ha         1 22P       0.135000
     27 OXT         -1.8210    -1.4430    -0.8340 o          1 22P      -0.784800
     28 H52          0.9750     1.1430    -2.2720 hc         1 22P       0.076700
     29 H52A        -0.5370     0.3060    -2.6520 hc         1 22P       0.076700
     30 H93         -0.4430    -2.0130     1.7340 hn         1 22P       0.452800
@<TRIPOS>BOND
     1     1     4 1   
     2     1    15 1   
     3     2    13 1   
     4     3     5 1   
     5     3    16 1   
     6     3    17 1   
     7     4     5 1   
     8     4     6 1   
     9     4    13 1   
    10     5    18 1   
    11     5    19 1   
    12     6    14 1   
    13     6    20 1   
    14     6    21 1   
    15     7     8 ar  
    16     7    12 ar  
    17     7    14 1   
    18     8     9 ar  
    19     8    22 1   
    20     9    10 ar  
    21     9    23 1   
    22    10    11 ar  
    23    10    24 1   
    24    11    12 ar  
    25    11    25 1   
    26    12    26 1   
    27    13    27 1   
    28    14    28 1   
    29    14    29 1   
    30    30     3 1   
@<TRIPOS>SUBSTRUCTURE
     1 22P         1 TEMP              0 ****  ****    0 ROOT
