@<TRIPOS>MOLECULE
22Q
   26    26     1     0     0
SMALL
bcc


@<TRIPOS>ATOM
      1 C            0.0000     0.0000     0.0000 c2         1 22Q       0.134600
      2 N           -0.0260    -0.0000     2.3700 nc         1 22Q      -0.398300
      3 S            1.7110     0.0000     0.0000 sh         1 22Q      -0.227400
      4 C1          -0.6670     0.0000     3.5060 cd         1 22Q       0.308300
      5 N1          -2.8260     0.0010     2.3820 ns         1 22Q      -0.140500
      6 C2          -2.1630     0.0000     1.2060 c          1 22Q       0.611700
      7 O2          -2.7780     0.0010     0.1540 o          1 22Q      -0.648500
      8 C4           0.1060     0.0010     4.8000 c3         1 22Q      -0.035700
      9 C5          -2.1270     0.0000     3.5350 c          1 22Q       0.496200
     10 C6           1.6050     0.0000     4.4980 c3         1 22Q      -0.052700
     11 C7           1.9850     1.3080     3.7990 c3         1 22Q       0.001900
     12 C8           2.3890    -0.1250     5.8070 c3         1 22Q       0.001900
     13 CA          -0.6970    -0.0000     1.2050 cc         1 22Q      -0.077600
     14 H           -0.5410    -0.0000    -0.9380 h4         1 22Q       0.132000
     15 HS           2.1540    -0.1850    -1.2380 hs         1 22Q       0.179800
     16 HN1         -3.8270     0.0010     2.3970 hn         1 22Q       0.200500
     17 H4          -0.1470    -0.8830     5.3720 hc         1 22Q       0.037200
     18 H4A         -0.1470     0.8860     5.3710 hc         1 22Q       0.037200
     19 H6           1.8430    -0.8360     3.8530 hc         1 22Q       0.038700
     20 H7           2.4410     1.0860     2.8410 hc         1 22Q       0.004867
     21 H7A          2.6890     1.8550     4.4150 hc         1 22Q       0.004867
     22 H7B          1.0960     1.9070     3.6460 hc         1 22Q       0.004867
     23 H8           2.1230     0.6910     6.4670 hc         1 22Q       0.004867
     24 H8A          2.1490    -1.0680     6.2830 hc         1 22Q       0.004867
     25 H8B          3.4510    -0.0870     5.5960 hc         1 22Q       0.004867
     26 O3          -2.7150     0.0010     4.6020 o          1 22Q      -0.629500
@<TRIPOS>BOND
     1     1     3 1   
     2     1    13 2   
     3     1    14 1   
     4     2     4 2   
     5     2    13 1   
     6     3    15 1   
     7     4     8 1   
     8     4     9 1   
     9     5     6 1   
    10     5     9 1   
    11     5    16 1   
    12     6     7 2   
    13     6    13 1   
    14     8    10 1   
    15     8    17 1   
    16     8    18 1   
    17     9    26 2   
    18    10    11 1   
    19    10    12 1   
    20    10    19 1   
    21    11    20 1   
    22    11    21 1   
    23    11    22 1   
    24    12    23 1   
    25    12    24 1   
    26    12    25 1   
@<TRIPOS>SUBSTRUCTURE
     1 22Q         1 TEMP              0 ****  ****    0 ROOT
