@<TRIPOS>MOLECULE
22S
   42    44     1     0     0
SMALL
bcc


@<TRIPOS>ATOM
      1 C1           0.0000     0.0000     0.0000 c3         1 22S       0.025000
      2 N1          -0.4900     0.0580    -1.3790 ns         1 22S       0.173000
      3 S1          -2.4770    -1.4960    -0.5470 s          1 22S      -0.389000
      4 Cl1          0.6990     1.6350    -4.2040 cl         1 22S       0.092000
      5 C2           1.5310     0.0000     0.0000 c3         1 22S       0.021000
      6 N2          -2.0660    -0.5440    -2.9930 ns         1 22S       0.212000
      7 O2           2.0070    -1.1670    -0.6730 oh         1 22S      -0.299000
      8 C3           2.0340     0.0000     1.4470 c3         1 22S       0.039000
      9 N3          -1.3630     0.1930    -3.9550 n2         1 22S      -0.086000
     10 O3          -2.0870     2.3090     2.7950 oh         1 22S      -0.301000
     11 C4           1.4530     1.2140     2.1770 c3         1 22S       0.026000
     12 O4           1.8580     1.1860     3.5480 oh         1 22S      -0.306000
     13 C5          -0.0740     1.1680     2.0940 c3         1 22S       0.063000
     14 O5          -0.4750     1.1390     0.7220 os         1 22S      -0.245000
     15 C6          -0.6610     2.4090     2.7700 c3         1 22S       0.075000
     16 O6           3.4610     0.0740     1.4560 oh         1 22S      -0.318000
     17 C7          -1.6160    -0.5970    -1.7230 c2         1 22S      -0.125000
     18 C8          -1.7960     0.2440    -5.1770 c2         1 22S      -0.401000
     19 C9          -1.0540     1.0190    -6.1900 c3         1 22S      -0.137000
     20 C10          0.1140     1.6990    -5.8370 c2         1 22S      -0.116000
     21 C11          0.8020     2.4200    -6.7920 c2         1 22S      -0.113000
     22 C12          0.3380     2.4720    -8.0930 c2         1 22S      -0.046000
     23 C13         -0.8190     1.8010    -8.4490 c2         1 22S      -0.120000
     24 C14         -1.5150     1.0710    -7.5080 c2         1 22S      -0.001000
     25 H1          -0.3590    -0.9040     0.4780 h2         1 22S       0.142000
     26 HN1          0.0220     0.5700    -2.0700 hn         1 22S       0.090000
     27 H2           1.8910     0.8880    -0.5060 h1         1 22S       0.055000
     28 HN2         -2.8850    -1.0560    -3.2550 hn         1 22S       0.124000
     29 HO2          2.7130    -0.9310    -1.2510 ho         1 22S       0.198000
     30 H3           1.7090    -0.9080     1.9410 h1         1 22S       0.074000
     31 HO3         -2.4420     3.0070     3.3200 ho         1 22S       0.186000
     32 H4           1.8120     2.1220     1.7080 h1         1 22S       0.058000
     33 HO4          2.5750     1.7840     3.6770 ho         1 22S       0.198000
     34 H5          -0.4340     0.2760     2.5930 h1         1 22S       0.083000
     35 H6          -0.2860     2.4800     3.7830 h1         1 22S       0.035000
     36 H6A         -0.3710     3.2930     2.2150 h1         1 22S       0.035000
     37 HO6          3.8110    -0.6690     1.9200 ho         1 22S       0.203000
     38 H8          -1.8370     1.3220    -5.2730 DU         1 22S       0.322000
     39 H11          1.7090     2.9480    -6.5210 ha         1 22S       0.120000
     40 H12          0.8810     3.0430    -8.8370 ha         1 22S       0.110000
     41 H13         -1.1760     1.8440    -9.4700 ha         1 22S       0.115000
     42 H14         -2.4200     0.5470    -7.7890 ha         1 22S       0.128000
@<TRIPOS>BOND
     1     1     2 1   
     2     1     5 1   
     3     1    14 1   
     4     1    25 1   
     5     2    17 1   
     6     2    26 1   
     7     3    17 1   
     8     4    20 1   
     9     5     7 1   
    10     5     8 1   
    11     5    27 1   
    12     6     9 1   
    13     6    17 1   
    14     6    28 1   
    15     7    29 1   
    16     8    11 1   
    17     8    16 1   
    18     8    30 1   
    19     9    18 1   
    20    10    15 1   
    21    10    31 1   
    22    11    12 1   
    23    11    13 1   
    24    11    32 1   
    25    12    33 1   
    26    13    14 1   
    27    13    15 1   
    28    13    34 1   
    29    15    35 1   
    30    15    36 1   
    31    16    37 1   
    32    18    19 1   
    33    18    38 1   
    34    19    20 1   
    35    19    24 1   
    36    19    38 1   
    37    20    21 1   
    38    21    22 1   
    39    21    39 1   
    40    22    23 1   
    41    22    40 1   
    42    23    24 1   
    43    23    41 1   
    44    24    42 1   
@<TRIPOS>SUBSTRUCTURE
     1 22S         1 TEMP              0 ****  ****    0 ROOT
