@<TRIPOS>MOLECULE
molecule
   31    33     1     0     0
SMALL
bcc


@<TRIPOS>ATOM
      1 Cl21         0.0000     0.0000     0.0000 cl         1 22T      -0.085400
      2 C14          1.7360     0.0000     0.0000 ca         1 22T      -0.024600
      3 C13          2.4110     0.0000     1.1880 ca         1 22T      -0.016000
      4 C10          3.8070    -0.0000     1.1910 ca         1 22T      -0.192600
      5 C11          4.5790     0.0000     2.4370 c          1 22T       0.712100
      6 O13          4.0100    -0.0000     3.5140 o          1 22T      -0.635500
      7 N20          5.9250    -0.0000     2.3770 ns         1 22T      -0.438100
      8 C12          6.6040     0.0010     1.1920 cc         1 22T       0.005600
      9 C9           4.5130    -0.0010    -0.0360 ca         1 22T       0.042200
     10 C8           3.8090    -0.0010    -1.2380 ca         1 22T      -0.237000
     11 C7           2.4250    -0.0050    -1.2140 ca         1 22T       0.182100
     12 O9           1.7320    -0.0110    -2.3810 os         1 22T      -0.298900
     13 C5           2.4910    -0.1320    -3.5860 c3         1 22T       0.113100
     14 C6           2.9990     1.2490    -4.0510 c3         1 22T       0.121800
     15 C15          5.9770     0.0010     0.0050 cd         1 22T      -0.218200
     16 C4           1.5860    -0.5840    -4.7610 c3         1 22T      -0.081400
     17 C3           2.3480    -0.0130    -5.9820 c3         1 22T       0.146800
     18 N1           2.8820     1.2860    -5.5200 n7         1 22T      -0.801200
     19 H13          1.8680     0.0960     2.1200 ha         1 22T       0.173000
     20 H20          6.4460    -0.0000     3.2320 hn         1 22T       0.336500
     21 H12          7.6870     0.0000     1.2100 h4         1 22T       0.150000
     22 H15          6.5490     0.0020    -0.9150 ha         1 22T       0.148000
     23 H8           4.3390    -0.0050    -2.1830 ha         1 22T       0.147000
     24 H5           3.3190    -0.8180    -3.4570 h1         1 22T       0.054700
     25 H61C         4.0360     1.3760    -3.7620 h1         1 22T       0.056700
     26 H62C         2.3900     2.0310    -3.6140 h1         1 22T       0.056700
     27 H41C         0.6000    -0.1410    -4.6810 hc         1 22T       0.069700
     28 H42C         1.5310    -1.6650    -4.8120 hc         1 22T       0.069700
     29 H1           3.7860     1.4380    -5.9230 hn         1 22T       0.350800
     30 H31C         1.6700     0.1340    -6.8130 h1         1 22T       0.045200
     31 H32C         3.1590    -0.6740    -6.2610 h1         1 22T       0.045200
@<TRIPOS>BOND
     1     1     2 1
     2     2     3 ar
     3     2    11 ar
     4     3     4 ar
     5     4     5 1
     6     4     9 ar
     7     5     6 2
     8     5     7 1
     9     7     8 1
    10     8    15 2
    11     9    10 ar
    12     9    15 1
    13    10    11 ar
    14    11    12 1
    15    12    13 1
    16    13    14 1
    17    13    16 1
    18    14    18 1
    19    16    17 1
    20    17    18 1
    21     3    19 1
    22     7    20 1
    23     8    21 1
    24    15    22 1
    25    10    23 1
    26    13    24 1
    27    14    25 1
    28    14    26 1
    29    16    27 1
    30    16    28 1
    31    18    29 1
    32    17    30 1
    33    17    31 1
@<TRIPOS>SUBSTRUCTURE
     1 22T         1 TEMP              0 ****  ****    0 ROOT
