@<TRIPOS>MOLECULE
22T
   31    33     1     0     0
SMALL
bcc


@<TRIPOS>ATOM
      1 Cl21         0.0000     0.0000     0.0000 cl         1 22T      -0.000400
      2 C14          1.7360     0.0000     0.0000 ca         1 22T      -0.102600
      3 C13          2.4110     0.0000     1.1880 ca         1 22T       0.016000
      4 C10          3.8070    -0.0000     1.1910 ca         1 22T      -0.201600
      5 C11          4.5790     0.0000     2.4370 c          1 22T       0.615100
      6 O13          4.0100    -0.0000     3.5140 o          1 22T      -0.680500
      7 N20          5.9250    -0.0000     2.3770 ns         1 22T       0.035900
      8 C12          6.6040     0.0010     1.1920 cc         1 22T      -0.135400
      9 C9           4.5130    -0.0010    -0.0360 ca         1 22T       0.047200
     10 C8           3.8090    -0.0010    -1.2380 ca         1 22T      -0.230000
     11 C7           2.4250    -0.0050    -1.2140 ca         1 22T       0.189100
     12 O9           1.7320    -0.0110    -2.3810 os         1 22T      -0.277900
     13 C5           2.4910    -0.1320    -3.5860 c3         1 22T       0.146100
     14 C6           2.9990     1.2490    -4.0510 c3         1 22T       0.109800
     15 C15          5.9770     0.0010     0.0050 cd         1 22T      -0.180200
     16 C4           1.5860    -0.5840    -4.7610 c3         1 22T      -0.028400
     17 C3           2.3480    -0.0130    -5.9820 c3         1 22T       0.148800
     18 N1           2.8820     1.2860    -5.5200 n7         1 22T      -0.578200
     19 H13          1.8680     0.0960     2.1200 ha         1 22T       0.137000
     20 H20          6.4460    -0.0000     3.2320 hn         1 22T       0.170500
     21 H12          7.6870     0.0000     1.2100 h4         1 22T       0.119000
     22 H15          6.5490     0.0020    -0.9150 ha         1 22T       0.122000
     23 H8           4.3390    -0.0050    -2.1830 ha         1 22T       0.133000
     24 H5           3.3190    -0.8180    -3.4570 h1         1 22T       0.026700
     25 H61C         4.0360     1.3760    -3.7620 h1         1 22T       0.025700
     26 H62C         2.3900     2.0310    -3.6140 h1         1 22T       0.025700
     27 H41C         0.6000    -0.1410    -4.6810 hc         1 22T       0.034700
     28 H42C         1.5310    -1.6650    -4.8120 hc         1 22T       0.034700
     29 H1           3.7860     1.4380    -5.9230 hn         1 22T       0.250800
     30 H31C         1.6700     0.1340    -6.8130 h1         1 22T       0.012700
     31 H32C         3.1590    -0.6740    -6.2610 h1         1 22T       0.012700
@<TRIPOS>BOND
     1     1     2 1   
     2     2     3 ar  
     3     2    11 ar  
     4     3     4 ar  
     5     3    19 1   
     6     4     5 1   
     7     4     9 ar  
     8     5     6 2   
     9     5     7 1   
    10     7     8 1   
    11     7    20 1   
    12     8    15 2   
    13     8    21 1   
    14     9    10 ar  
    15     9    15 1   
    16    10    11 ar  
    17    10    23 1   
    18    11    12 1   
    19    12    13 1   
    20    13    14 1   
    21    13    16 1   
    22    13    24 1   
    23    14    18 1   
    24    14    25 1   
    25    14    26 1   
    26    15    22 1   
    27    16    17 1   
    28    16    27 1   
    29    16    28 1   
    30    17    18 1   
    31    17    30 1   
    32    17    31 1   
    33    18    29 1   
@<TRIPOS>SUBSTRUCTURE
     1 22T         1 TEMP              0 ****  ****    0 ROOT
