@<TRIPOS>MOLECULE
molecule
   27    27     1     0     0
SMALL
bcc


@<TRIPOS>ATOM
      1 C            0.0000     0.0000     0.0000 c1         1 22W       0.315000
      2 N           -4.0840    -0.1140    -2.9910 nz         1 22W      -0.814600
      3 O           -3.4190     0.0000     0.6630 os         1 22W      -0.367700
      4 S            1.5540     0.0000     0.0000 s          1 22W       0.151100
      5 CA          -4.5430     0.0040    -1.6000 c3         1 22W       0.145200
      6 CB          -5.4540    -1.1780    -1.2610 c3         1 22W      -0.108700
      7 NB          -2.0980     0.0030    -1.0650 nc         1 22W      -0.607300
      8 CE          -3.3530     0.0020    -0.6760 cd         1 22W       0.463600
      9 CF          -1.3070    -0.0000     0.0010 cc         1 22W      -0.178700
     10 C83         -2.1520    -0.0020     1.1390 c          1 22W       0.723800
     11 CG1         -6.6620    -1.1760    -2.2000 c3         1 22W      -0.163400
     12 CG2         -5.9320    -1.0550     0.1870 c3         1 22W      -0.094100
     13 HNA         -4.4040    -0.9800    -3.3760 hn         1 22W       0.467800
     14 HA          -5.0930     0.9300    -1.4790 hx         1 22W       0.131700
     15 HB          -4.9040    -2.1040    -1.3830 hc         1 22W       0.084700
     16 HD1         -7.7710    -1.4660    -1.5170 hc         1 22W       0.097033
     17 HD1A        -6.5210    -2.8420    -1.7770 hc         1 22W       0.097033
     18 HD1B        -7.9650    -2.6740    -2.8950 hc         1 22W       0.097033
     19 HG1         -6.3210    -1.1740    -3.2280 hc         1 22W       0.024700
     20 HG1A        -7.2600    -0.2920    -2.0160 hc         1 22W       0.024700
     21 HG2         -5.3790    -0.2670     0.6840 hc         1 22W       0.072033
     22 HG2A        -6.9890    -0.8190     0.2000 hc         1 22W       0.072033
     23 HG2B        -5.7650    -1.9930     0.7030 hc         1 22W       0.072033
     24 O26         -1.8070    -0.0030     2.3070 o          1 22W      -0.509500
     25 CD1         -7.5070    -2.4260    -1.9450 c3         1 22W      -0.131100
     26 H2          -3.0830    -0.0880    -3.0150 hn         1 22W       0.467800
     27 HN          -4.4500     0.6460    -3.5290 hn         1 22W       0.467800
@<TRIPOS>BOND
     1     1     4 2   
     2     2    27 1   
     3     2    13 1   
     4     3    10 1   
     5     3     8 1   
     6     5     2 1   
     7     5    14 1   
     8     6     5 1   
     9     6    11 1   
    10     6    15 1   
    11     8     5 1   
    12     8     7 2   
    13     9     1 2   
    14     9     7 1   
    15    24    10 2   
    16    10     9 1   
    17    25    11 1   
    18    25    16 1   
    19    25    17 1   
    20    25    18 1   
    21    11    19 1   
    22    11    20 1   
    23    12     6 1   
    24    12    21 1   
    25    12    22 1   
    26    12    23 1   
    27    26     2 1   
@<TRIPOS>SUBSTRUCTURE
     1 22W         1 TEMP              0 ****  ****    0 ROOT
