@<TRIPOS>MOLECULE
22W
   27    27     1     0     0
SMALL
bcc


@<TRIPOS>ATOM
      1 C            0.0000     0.0000     0.0000 c1         1 22W       0.416000
      2 N           -4.0840    -0.1140    -2.9910 nz         1 22W       0.070400
      3 O           -3.4190     0.0000     0.6630 os         1 22W      -0.339700
      4 S            1.5540     0.0000     0.0000 s          1 22W       0.015100
      5 CA          -4.5430     0.0040    -1.6000 c3         1 22W      -0.033800
      6 CB          -5.4540    -1.1780    -1.2610 c3         1 22W      -0.073700
      7 NB          -2.0980     0.0030    -1.0650 nc         1 22W      -0.512300
      8 CE          -3.3530     0.0020    -0.6760 cd         1 22W       0.436600
      9 CF          -1.3070    -0.0000     0.0010 cc         1 22W      -0.231700
     10 C83         -2.1520    -0.0020     1.1390 c          1 22W       0.786800
     11 CG1         -6.6620    -1.1760    -2.2000 c3         1 22W      -0.113400
     12 CG2         -5.9320    -1.0550     0.1870 c3         1 22W      -0.007100
     13 HNA         -3.3360     0.5320    -3.1510 hn         1 22W       0.235133
     14 HA          -5.0930     0.9300    -1.4790 hx         1 22W       0.100700
     15 HB          -4.9040    -2.1040    -1.3830 hc         1 22W       0.058700
     16 HD1         -7.7720    -1.4660    -1.5170 hc         1 22W       0.069367
     17 HD1A        -6.5210    -2.8410    -1.7770 hc         1 22W       0.069367
     18 HD1B        -7.9650    -2.6740    -2.8950 hc         1 22W       0.069367
     19 HG1         -7.2600    -0.2920    -2.0160 hc         1 22W       0.001700
     20 HG1A        -6.3210    -1.1740    -3.2280 hc         1 22W       0.001700
     21 HG2         -5.9860    -0.0090     0.4620 hc         1 22W       0.037033
     22 HG2A        -5.2350    -1.5650     0.8420 hc         1 22W       0.037033
     23 HG2B        -6.9130    -1.5050     0.2830 hc         1 22W       0.037033
     24 O26         -1.8070    -0.0030     2.3070 o          1 22W      -0.543500
     25 CD1         -7.5070    -2.4260    -1.9450 c3         1 22W      -0.057100
     26 H2          -4.8410     0.0920    -3.6110 hn         1 22W       0.235133
     27 HN          -3.7600    -1.0460    -3.1570 hn         1 22W       0.235133
@<TRIPOS>BOND
     1     1     4 2   
     2     1     9 2   
     3     2     5 1   
     4     2    13 1   
     5     2    26 1   
     6     2    27 1   
     7     3     8 1   
     8     3    10 1   
     9     5     6 1   
    10     5     8 1   
    11     5    14 1   
    12     6    11 1   
    13     6    12 1   
    14     6    15 1   
    15     7     8 2   
    16     7     9 1   
    17     9    10 1   
    18    10    24 2   
    19    11    19 1   
    20    11    20 1   
    21    11    25 1   
    22    12    21 1   
    23    12    22 1   
    24    12    23 1   
    25    16    25 1   
    26    17    25 1   
    27    18    25 1   
@<TRIPOS>SUBSTRUCTURE
     1 22W         1 TEMP              0 ****  ****    0 ROOT
