@<TRIPOS>MOLECULE
22X
   81    83     1     0     0
SMALL
bcc


@<TRIPOS>ATOM
      1 C1           0.0000     0.0000     0.0000 c3         1 22X       0.238100
      2 N1          -0.0200     4.9440    -0.0300 ns         1 22X      -0.204900
      3 O1           1.4290     0.0000     0.0000 oh         1 22X      -0.588800
      4 Cl1         -3.6940    -1.3370     3.4140 cl         1 22X      -0.019400
      5 C2          -0.5030     0.0000     1.4200 ca         1 22X      -0.120300
      6 N2          -3.9080    -2.2350    -4.5160 n7         1 22X      -0.593200
      7 O2          -1.2630    -1.4610    -4.5520 o          1 22X      -0.712100
      8 C3           0.2450     0.5990     2.4180 ca         1 22X      -0.108000
      9 N3          -1.4870    -3.6710    -4.5010 ns         1 22X      -0.216900
     10 O3          -1.0430     6.2800    -1.4760 o          1 22X      -0.646100
     11 C4          -1.7130    -0.5930     1.7260 ca         1 22X      -0.095000
     12 N4          -0.3780    -2.5110    -2.8060 n          1 22X      -0.177800
     13 C5          -0.2150     0.5980     3.7220 ca         1 22X      -0.087000
     14 C6          -2.1740    -0.5930     3.0300 ca         1 22X      -0.032600
     15 C7          -1.4220     0.0010     4.0290 ca         1 22X      -0.096000
     16 C8          -0.5100     1.2500    -0.7210 c3         1 22X      -0.025400
     17 C9           0.0010     2.4980     0.0000 c3         1 22X      -0.058400
     18 C10         -0.5090     3.7480    -0.7210 c3         1 22X       0.051000
     19 C11         -0.3450     6.1680    -0.4910 c          1 22X       0.568100
     20 C12          0.1570     7.3990     0.2200 c3         1 22X      -0.068100
     21 C13         -2.3160    -3.6600    -5.7100 c3         1 22X       0.021700
     22 C14         -3.7810    -3.4550    -5.3230 c3         1 22X       0.124800
     23 C15         -2.1630    -4.9950    -6.4430 c3         1 22X      -0.036400
     24 C16         -0.7240    -5.1430    -6.9400 c3         1 22X      -0.053700
     25 C17         -0.5390    -6.5280    -7.5630 c3         1 22X      -0.027900
     26 C18          0.9000    -6.6770    -8.0590 c3         1 22X      -0.021900
     27 C19          1.1900    -5.6030    -9.1090 c3         1 22X      -0.025400
     28 C20         -0.4340    -4.0690    -7.9900 c3         1 22X      -0.027900
     29 C21          1.0060    -4.2170    -8.4870 c3         1 22X      -0.021900
     30 C22         -1.0510    -2.5090    -3.9740 c          1 22X       0.615100
     31 C23         -0.5410    -3.7440    -0.7060 c3         1 22X      -0.037400
     32 C24         -0.0030    -2.4960    -0.0030 c3         1 22X      -0.041400
     33 C25         -0.5100    -1.2490    -0.7220 c3         1 22X      -0.098700
     34 C26          0.0070    -1.2470    -2.1630 c3         1 22X       0.064000
     35 C27         -0.0230    -3.7760    -2.1480 c3         1 22X       0.048000
     36 C28         -5.3050    -2.0050    -4.1250 c3         1 22X       0.178100
     37 HN1          0.5690     4.8530     0.7740 hn         1 22X       0.171500
     38 HO1          1.7430    -0.4660     0.7570 ho         1 22X       0.401000
     39 HN2         -3.5750    -1.4510    -5.0420 hn         1 22X       0.282800
     40 H3           1.1920     1.0680     2.1780 ha         1 22X       0.120000
     41 HN3         -1.2890    -4.5360    -4.0390 hn         1 22X       0.178500
     42 H4          -2.3260    -1.0100     0.9360 ha         1 22X       0.132000
     43 H5           0.3720     1.0650     4.5030 ha         1 22X       0.108000
     44 H7          -1.7820     0.0010     5.0510 ha         1 22X       0.116000
     45 H8          -0.1480     1.2500    -1.7430 hc         1 22X       0.037700
     46 H8A         -1.5930     1.2500    -0.7220 hc         1 22X       0.037700
     47 H9          -0.3600     2.4980     1.0210 hc         1 22X       0.027700
     48 H9A          1.0840     2.4980     0.0000 hc         1 22X       0.027700
     49 H10         -1.5920     3.7480    -0.7220 h1         1 22X       0.028200
     50 H10A        -0.1470     3.7480    -1.7430 h1         1 22X       0.028200
     51 H12         -0.2070     8.2830    -0.2880 hc         1 22X       0.021033
     52 H12A         1.2410     7.4010     0.2160 hc         1 22X       0.021033
     53 H12B        -0.2000     7.3970     1.2420 hc         1 22X       0.021033
     54 H13         -1.9970    -2.8530    -6.3590 h1         1 22X       0.068700
     55 H14         -4.1250    -4.3060    -4.7470 h1         1 22X       0.007200
     56 H14A        -4.3820    -3.3600    -6.2190 h1         1 22X       0.007200
     57 H15         -2.3970    -5.8080    -5.7660 hc         1 22X       0.022200
     58 H15A        -2.8410    -5.0230    -7.2880 hc         1 22X       0.022200
     59 H16         -0.0370    -5.0290    -6.1100 hc         1 22X       0.031700
     60 H17         -0.7430    -7.2880    -6.8180 hc         1 22X       0.018700
     61 H17A        -1.2210    -6.6410    -8.3980 hc         1 22X       0.018700
     62 H18          1.5820    -6.5600    -7.2260 hc         1 22X       0.013450
     63 H18A         1.0280    -7.6580    -8.5030 hc         1 22X       0.013450
     64 H19          0.5050    -5.7180    -9.9400 hc         1 22X       0.012700
     65 H19A         2.2100    -5.7070    -9.4580 hc         1 22X       0.012700
     66 H20         -0.5620    -3.0890    -7.5470 hc         1 22X       0.018700
     67 H20A        -1.1160    -4.1860    -8.8230 hc         1 22X       0.018700
     68 H21          1.2090    -3.4580    -9.2320 hc         1 22X       0.013450
     69 H21A         1.6880    -4.1040    -7.6530 hc         1 22X       0.013450
     70 H23         -0.2000    -4.6280    -0.1820 hc         1 22X       0.021200
     71 H23A        -1.6240    -3.7160    -0.7130 hc         1 22X       0.021200
     72 H24          1.0800    -2.5080    -0.0250 hc         1 22X       0.025700
     73 H24A        -0.3480    -2.4840     1.0240 hc         1 22X       0.025700
     74 H25         -1.5940    -1.2520    -0.7280 hc         1 22X       0.051700
     75 H26          1.0870    -1.1570    -2.1600 h1         1 22X       0.047700
     76 H26A        -0.4310    -0.4170    -2.7050 h1         1 22X       0.047700
     77 H27         -0.4810    -4.6010    -2.6790 h1         1 22X       0.019700
     78 H27A         1.0540    -3.8910    -2.1440 h1         1 22X       0.019700
     79 H28         -5.9300    -1.9950    -5.0090 h1         1 22X      -0.004633
     80 H28A        -5.3850    -1.0520    -3.6160 h1         1 22X      -0.004633
     81 H28B        -5.6290    -2.7970    -3.4610 h1         1 22X      -0.004633
@<TRIPOS>BOND
     1     1     3 1   
     2     1     5 1   
     3     1    16 1   
     4     1    33 1   
     5     2    18 1   
     6     2    19 1   
     7     2    37 1   
     8     3    38 1   
     9     4    14 1   
    10     5     8 ar  
    11     5    11 ar  
    12     6    22 1   
    13     6    36 1   
    14     6    39 1   
    15     7    30 2   
    16     8    13 ar  
    17     8    40 1   
    18     9    21 1   
    19     9    30 1   
    20     9    41 1   
    21    10    19 2   
    22    11    14 ar  
    23    11    42 1   
    24    12    30 1   
    25    12    34 1   
    26    12    35 1   
    27    13    15 ar  
    28    13    43 1   
    29    14    15 ar  
    30    15    44 1   
    31    16    17 1   
    32    16    45 1   
    33    16    46 1   
    34    17    18 1   
    35    17    47 1   
    36    17    48 1   
    37    18    49 1   
    38    18    50 1   
    39    19    20 1   
    40    20    51 1   
    41    20    52 1   
    42    20    53 1   
    43    21    22 1   
    44    21    23 1   
    45    21    54 1   
    46    22    55 1   
    47    22    56 1   
    48    23    24 1   
    49    23    57 1   
    50    23    58 1   
    51    24    25 1   
    52    24    28 1   
    53    24    59 1   
    54    25    26 1   
    55    25    60 1   
    56    25    61 1   
    57    26    27 1   
    58    26    62 1   
    59    26    63 1   
    60    27    29 1   
    61    27    64 1   
    62    27    65 1   
    63    28    29 1   
    64    28    66 1   
    65    28    67 1   
    66    29    68 1   
    67    29    69 1   
    68    31    32 1   
    69    31    35 1   
    70    31    70 1   
    71    31    71 1   
    72    32    33 1   
    73    32    72 1   
    74    32    73 1   
    75    33    34 1   
    76    33    74 1   
    77    34    75 1   
    78    34    76 1   
    79    35    77 1   
    80    35    78 1   
    81    36    79 1   
    82    36    80 1   
    83    36    81 1   
@<TRIPOS>SUBSTRUCTURE
     1 22X         1 TEMP              0 ****  ****    0 ROOT
