@<TRIPOS>MOLECULE
22Y
   42    44     1     0     0
SMALL
bcc


@<TRIPOS>ATOM
      1 C1           0.0000     0.0000     0.0000 c3         1 22Y      -0.025100
      2 C2           1.5310     0.0000     0.0000 c3         1 22Y       0.191800
      3 C4           2.0330     0.0000     1.4200 ca         1 22Y      -0.087300
      4 C5           2.4590    -1.1790     2.0020 ca         1 22Y      -0.096000
      5 C6           2.9200    -1.1800     3.3050 ca         1 22Y      -0.101000
      6 C7           2.9540    -0.0000     4.0270 ca         1 22Y      -0.111000
      7 C8           2.5270     1.1790     3.4450 ca         1 22Y      -0.101000
      8 C9           2.0720     1.1800     2.1400 ca         1 22Y      -0.096000
      9 N10          2.0180     1.1960    -0.6910 nu         1 22Y      -0.534900
     10 C11          2.1510     1.1950    -2.0760 ca         1 22Y       0.378900
     11 C12          2.6180     2.3400    -2.7380 ca         1 22Y       0.299900
     12 N13          2.7440     2.3350    -4.0570 nb         1 22Y      -0.567000
     13 C14          2.4290     1.2530    -4.7500 ca         1 22Y       0.252900
     14 C15          1.9650     0.1160    -4.0970 cp         1 22Y       0.362500
     15 N16          1.8430     0.1130    -2.7700 nb         1 22Y      -0.603000
     16 C17          1.6130    -1.0940    -4.8780 cp         1 22Y      -0.190500
     17 C18          1.7460    -1.0930    -6.2620 ca         1 22Y      -0.056000
     18 C19          1.4130    -2.2350    -6.9890 ca         1 22Y      -0.106600
     19 C20          0.9480    -3.3730    -6.3240 ca         1 22Y      -0.041000
     20 C21          0.8190    -3.3670    -4.9510 ca         1 22Y      -0.151000
     21 C22          1.1530    -2.2390    -4.2240 ca         1 22Y      -0.011600
     22 Cl1          0.9870    -2.2410    -2.4960 cl         1 22Y      -0.053400
     23 C24          1.5510    -2.2430    -8.4600 c          1 22Y       0.973200
     24 O25          1.2290    -3.3480    -9.1610 o          1 22Y      -0.880300
     25 O26          1.9550    -1.2530    -9.0370 o          1 22Y      -0.880300
     26 N27          2.9500     3.4780    -2.0110 nv         1 22Y      -0.583500
     27 H1          -0.3610    -0.5580    -0.8550 hc         1 22Y       0.013033
     28 H2          -0.3610    -0.4620     0.9110 hc         1 22Y       0.013033
     29 H3          -0.3610     1.0200    -0.0560 hc         1 22Y       0.013033
     30 H4           1.8920    -0.8840    -0.5110 h1         1 22Y       0.070700
     31 H5           2.4320    -2.1030     1.4370 ha         1 22Y       0.108500
     32 H6           3.2540    -2.1040     3.7610 ha         1 22Y       0.098500
     33 H7           3.3130    -0.0010     5.0490 ha         1 22Y       0.097000
     34 H8           2.5560     2.1030     4.0090 ha         1 22Y       0.098500
     35 H9           1.7380     2.1040     1.6840 ha         1 22Y       0.108500
     36 H10          2.2290     2.0240    -0.1690 hn         1 22Y       0.294800
     37 H11          2.5300     1.2540    -5.8290 h4         1 22Y       0.014100
     38 H12          2.1070    -0.2090    -6.7740 ha         1 22Y       0.131000
     39 H13          0.6870    -4.2610    -6.8870 ha         1 22Y       0.132000
     40 H14          0.4600    -4.2520    -4.4390 ha         1 22Y       0.098000
     41 H16          2.3970     3.7450    -1.2210 hn         1 22Y       0.262800
     42 H17          3.7040     4.0620    -2.3140 hn         1 22Y       0.262800
@<TRIPOS>BOND
     1     1     2 1   
     2     1    27 1   
     3     1    28 1   
     4     1    29 1   
     5     2     3 1   
     6     2     9 1   
     7     2    30 1   
     8     3     4 ar  
     9     3     8 ar  
    10     4     5 ar  
    11     4    31 1   
    12     5     6 ar  
    13     5    32 1   
    14     6     7 ar  
    15     6    33 1   
    16     7     8 ar  
    17     7    34 1   
    18     8    35 1   
    19     9    10 1   
    20     9    36 1   
    21    10    11 ar  
    22    10    15 ar  
    23    11    12 ar  
    24    11    26 1   
    25    12    13 ar  
    26    13    14 ar  
    27    13    37 1   
    28    14    15 ar  
    29    14    16 1   
    30    16    17 ar  
    31    16    21 ar  
    32    17    18 ar  
    33    17    38 1   
    34    18    19 ar  
    35    18    23 1   
    36    19    20 ar  
    37    19    39 1   
    38    20    21 ar  
    39    20    40 1   
    40    21    22 1   
    41    23    24 1   
    42    23    25 1   
    43    26    41 1   
    44    26    42 1   
@<TRIPOS>SUBSTRUCTURE
     1 22Y         1 TEMP              0 ****  ****    0 ROOT
