@<TRIPOS>MOLECULE
molecule
   53    54     1     0     0
SMALL
bcc


@<TRIPOS>ATOM
      1 N01          0.0000     0.0000     0.0000 nu         1 22Z      -0.766600
      2 N02          3.1220    -0.1290     2.7880 nz         1 22Z      -0.674400
      3 N03         -4.1270     1.2610     0.9130 nb         1 22Z      -0.678000
      4 N04          3.1680     0.0030    -3.6210 nu         1 22Z      -0.751600
      5 N05          5.3480     0.0020    -1.8270 no         1 22Z       0.294200
      6 C06          3.6970     0.0000     0.0000 ca         1 22Z       0.024000
      7 C07          2.3780     0.0000     0.4660 ca         1 22Z      -0.352600
      8 C08          1.3140     0.0010    -0.4530 ca         1 22Z       0.338600
      9 C09          1.5820     0.0010    -1.8120 ca         1 22Z      -0.318000
     10 C10          2.8980     0.0020    -2.2570 ca         1 22Z       0.321600
     11 C11          3.9490     0.0020    -1.3420 ca         1 22Z      -0.244200
     12 C13         -1.1020     0.1470    -0.9530 c3         1 22Z       0.275100
     13 C14         -2.4140     0.1140    -0.2120 ca         1 22Z      -0.268600
     14 C15         -2.9790     1.2820     0.2630 ca         1 22Z       0.446200
     15 C16         -4.7780     0.1360     1.1330 ca         1 22Z       0.446200
     16 C17         -4.2750    -1.0710     0.6890 ca         1 22Z      -0.251300
     17 C18         -3.0700    -1.0900     0.0020 ca         1 22Z      -0.074000
     18 C19          2.0720     0.1330    -4.5850 c3         1 22Z       0.214800
     19 C20          2.6370     0.1040    -6.0060 c3         1 22Z      -0.099400
     20 C21          1.4920     0.2410    -7.0130 c3         1 22Z      -0.078400
     21 C22          2.0570     0.2120    -8.4340 c3         1 22Z      -0.080400
     22 C23          0.9120     0.3480    -9.4410 c3         1 22Z      -0.083400
     23 C24          1.4760     0.3200   -10.8630 c3         1 22Z      -0.091100
     24 O25          0.9640     0.1100     2.3160 o          1 22Z      -0.484100
     25 O26          6.1980    -0.6390    -1.2360 o          1 22Z      -0.187000
     26 O27          5.6480     0.6440    -2.8180 o          1 22Z      -0.187000
     27 HN01        -0.1940    -0.1510     0.9700 hn         1 22Z       0.478800
     28 HN02         2.7570    -0.1540     3.7200 hn         1 22Z       0.476800
     29 HN0A         3.6230    -0.9750     2.6030 hn         1 22Z       0.476800
     30 HN04         4.1070    -0.1120    -3.9460 hn         1 22Z       0.479800
     31 H06          4.5190    -0.0010     0.7050 ha         1 22Z       0.131000
     32 H09          0.7700    -0.0780    -2.5250 ha         1 22Z       0.176000
     33 H13         -1.0710    -0.6660    -1.6690 h1         1 22Z       0.061200
     34 H13A        -1.0060     1.0910    -1.4750 h1         1 22Z       0.061200
     35 H15         -2.4730     2.2260     0.1010 h4         1 22Z       0.028100
     36 H16         -5.7190     0.1580     1.6700 h4         1 22Z       0.039100
     37 H17         -4.8150    -1.9920     0.8730 ha         1 22Z       0.153000
     38 H18         -2.6520    -2.0210    -0.3580 ha         1 22Z       0.141000
     39 H19          1.3780    -0.6890    -4.4560 h1         1 22Z       0.054200
     40 H19A         1.5550     1.0700    -4.4200 h1         1 22Z       0.054200
     41 H20          3.1530    -0.8340    -6.1710 hc         1 22Z       0.059700
     42 H20A         3.3310     0.9260    -6.1350 hc         1 22Z       0.059700
     43 H21          0.7980    -0.5810    -6.8840 hc         1 22Z       0.045200
     44 H21A         0.9760     1.1780    -6.8480 hc         1 22Z       0.045200
     45 H22          2.7510     1.0340    -8.5630 hc         1 22Z       0.047200
     46 H22A         2.5730    -0.7260    -8.5990 hc         1 22Z       0.047200
     47 H23          0.3960     1.2860    -9.2760 hc         1 22Z       0.041200
     48 H23A         0.2180    -0.4730    -9.3120 hc         1 22Z       0.041200
     49 H24          0.6660     0.4170   -11.5750 hc         1 22Z       0.037700
     50 H24A         2.1700     1.1420   -10.9920 hc         1 22Z       0.037700
     51 H24B         1.9930    -0.6180   -11.0280 hc         1 22Z       0.037700
     52 H023         3.7310     0.6590     2.6900 hn         1 22Z       0.476800
     53 C12          2.1060    -0.0020     1.9120 c          1 22Z       0.520700
@<TRIPOS>BOND
     1     1     8 1
     2     1    12 1
     3     1    27 1
     4     2    53 1
     5     2    28 1
     6     2    29 1
     7     3    14 ar
     8     3    15 ar
     9     4    10 1
    10     4    18 1
    11     4    30 1
    12     5    11 1
    13     5    25 1
    14     5    26 1
    15     6     7 ar
    16     6    11 ar
    17     6    31 1
    18     7     8 ar
    19     7    53 1
    20     8     9 ar
    21     9    10 ar
    22     9    32 1
    23    10    11 ar
    24    53    24 2
    25    12    13 1
    26    12    33 1
    27    12    34 1
    28    13    14 ar
    29    13    17 ar
    30    14    35 1
    31    15    16 ar
    32    15    36 1
    33    16    17 ar
    34    16    37 1
    35    17    38 1
    36    18    19 1
    37    18    39 1
    38    18    40 1
    39    19    20 1
    40    19    41 1
    41    19    42 1
    42    20    21 1
    43    20    43 1
    44    20    44 1
    45    21    22 1
    46    21    45 1
    47    21    46 1
    48    22    23 1
    49    22    47 1
    50    22    48 1
    51    23    49 1
    52    23    50 1
    53    23    51 1
    54    52     2 1
@<TRIPOS>SUBSTRUCTURE
     1 22Z         1 TEMP              0 ****  ****    0 ROOT
