@<TRIPOS>MOLECULE
molecule
   56    59     1     0     0
SMALL
bcc


@<TRIPOS>ATOM
      1 N1           0.0000     0.0000     0.0000 ns         1 230      -0.472100
      2 N3           5.5720     0.0010    -0.0010 n          1 230      -0.227200
      3 C4           1.4010     0.0000     0.0000 ca         1 230       0.042600
      4 C5           2.0960     0.0000     1.2050 ca         1 230       0.096900
      5 C6           3.4780    -0.0000     1.2040 ca         1 230      -0.118000
      6 C7          -0.6740    -0.4940    -1.0580 c          1 230       0.655100
      7 C8          -1.6550    -7.1920    -4.0350 ca         1 230       0.004400
      8 C10         -2.6060    -5.1560    -4.8600 ca         1 230      -0.148000
      9 C13         -1.4940    -6.6180    -2.7870 ca         1 230      -0.100000
     10 C15          6.2390    -1.0620     0.4890 c          1 230       0.681700
     11 C17          8.3190     0.0110     0.0050 cc         1 230      -0.049000
     12 C20         -2.5880     1.0420    -1.5810 c3         1 230      -0.087400
     13 C21         -2.1750    -0.3770    -1.1160 c3         1 230       0.061700
     14 C22         -3.8540    -0.6210    -2.8030 c3         1 230       0.067000
     15 C1           4.1710     0.0010    -0.0000 ca         1 230       0.020600
     16 C2           3.4760     0.0010    -1.2020 ca         1 230      -0.116000
     17 C3           2.0960    -0.0050    -1.2010 ca         1 230      -0.112000
     18 F1           1.4220     0.0010     2.3750 f          1 230      -0.140900
     19 O1          -0.0710    -1.0320    -1.9620 o          1 230      -0.540100
     20 C9          -2.2090    -6.4610    -5.0710 ca         1 230      -0.100000
     21 C11         -2.4410    -4.5740    -3.6110 ca         1 230       0.081600
     22 C12         -1.8860    -5.3100    -2.5730 ca         1 230      -0.148000
     23 N2          -2.8440    -3.2500    -3.3940 ns         1 230      -0.482100
     24 C14          6.2440     1.0760    -0.4920 cd         1 230       0.011600
     25 C16          7.6430    -1.0670     0.4980 cd         1 230      -0.258200
     26 C18          7.5970     1.1010    -0.4990 cc         1 230      -0.247000
     27 O2           5.6220    -2.0200     0.9270 o          1 230      -0.636500
     28 C19         -3.9990     0.7790    -2.1690 c3         1 230       0.133100
     29 N4          -2.7200    -1.2840    -2.1420 n          1 230      -0.500800
     30 O3          -4.3230     1.7530    -3.1620 os         1 230      -0.412600
     31 C23         -2.2560    -2.5170    -2.4290 c          1 230       0.808100
     32 O4          -1.3070    -2.9660    -1.8160 o          1 230      -0.611100
     33 HN1         -0.5000     0.3530     0.7920 hn         1 230       0.329500
     34 H6           4.0210    -0.0000     2.1420 ha         1 230       0.163000
     35 H10         -3.0390    -4.5840    -5.6710 ha         1 230       0.155500
     36 H13         -1.0610    -7.1930    -1.9770 ha         1 230       0.146000
     37 H17          9.4020     0.0240     0.0040 ha         1 230       0.136000
     38 H201        -1.9140     1.4080    -2.3460 hc         1 230       0.075200
     39 H202        -2.6410     1.7230    -0.7410 hc         1 230       0.075200
     40 H21         -2.6140    -0.5970    -0.1500 h1         1 230       0.067700
     41 H221        -3.6560    -0.5240    -3.8640 h1         1 230       0.052700
     42 H222        -4.7600    -1.1930    -2.6410 h1         1 230       0.052700
     43 H2           4.0170    -0.0030    -2.1400 ha         1 230       0.147000
     44 H3           1.5550    -0.0050    -2.1400 ha         1 230       0.183000
     45 H9          -2.3350    -6.9150    -6.0470 ha         1 230       0.146000
     46 H12         -1.7580    -4.8590    -1.5960 ha         1 230       0.155500
     47 HN2         -3.5030    -2.8220    -4.0140 hn         1 230       0.320500
     48 H14          5.6900     1.9210    -0.8830 h4         1 230       0.157000
     49 H16          8.1850    -1.9180     0.8910 ha         1 230       0.165000
     50 H18          8.1210     1.9640    -0.8930 ha         1 230       0.147000
     51 H19         -4.7420     0.7640    -1.3810 h1         1 230       0.053700
     52 C24         -5.7190     2.0340    -3.2680 c3         1 230       0.125700
     53 Cl1         -1.1540    -8.8340    -4.3030 cl         1 230      -0.117400
     54 H241        -6.0650     2.4970    -2.3510 h1         1 230       0.035033
     55 H242        -6.2620     1.1120    -3.4330 h1         1 230       0.035033
     56 H243        -5.8900     2.7080    -4.0990 h1         1 230       0.035033
@<TRIPOS>BOND
     1     1     3 1   
     2     1     6 1   
     3     1    33 1   
     4     2    10 1   
     5     2    24 1   
     6     2    15 1   
     7     3    17 ar  
     8     3     4 ar  
     9     4     5 ar  
    10     4    18 1   
    11     5    15 ar  
    12     5    34 1   
    13     6    19 2   
    14     6    13 1   
    15     7    20 ar  
    16     7    53 1   
    17     7     9 ar  
    18     8    20 ar  
    19     8    21 ar  
    20     8    35 1   
    21     9    22 ar  
    22     9    36 1   
    23    10    25 1   
    24    10    27 2   
    25    11    25 2   
    26    11    26 1   
    27    11    37 1   
    28    12    13 1   
    29    12    28 1   
    30    12    38 1   
    31    12    39 1   
    32    13    29 1   
    33    13    40 1   
    34    14    29 1   
    35    14    28 1   
    36    14    41 1   
    37    14    42 1   
    38    52    30 1   
    39    52    54 1   
    40    52    55 1   
    41    52    56 1   
    42    15    16 ar  
    43    16    17 ar  
    44    16    43 1   
    45    17    44 1   
    46    20    45 1   
    47    21    23 1   
    48    21    22 ar  
    49    22    46 1   
    50    23    31 1   
    51    23    47 1   
    52    24    26 2   
    53    24    48 1   
    54    25    49 1   
    55    26    50 1   
    56    28    30 1   
    57    28    51 1   
    58    29    31 1   
    59    31    32 2   
@<TRIPOS>SUBSTRUCTURE
     1 230         1 TEMP              0 ****  ****    0 ROOT
