@<TRIPOS>MOLECULE
molecule
   19    20     1     0     0
SMALL
bcc


@<TRIPOS>ATOM
      1 CAI          0.0000     0.0000     0.0000 cc         1 231       0.397400
      2 NAJ          1.3520     0.0000     0.0000 na         1 231      -0.297900
      3 CAK          1.7600     0.0000     1.3050 cc         1 231      -0.261600
      4 NAH         -0.4250     0.0010     1.2320 nd         1 231      -0.690000
      5 CAG          0.6350     0.0010     2.0660 cd         1 231       0.370800
      6 CAD          0.5820     0.0020     3.5490 ca         1 231      -0.099500
      7 CAB         -0.6480     0.0030     4.2050 ca         1 231      -0.113000
      8 CAF          1.7620    -0.0040     4.2910 ca         1 231      -0.113000
      9 CAE          1.7060    -0.0040     5.6700 ca         1 231      -0.131000
     10 CAC          0.4830     0.0020     6.3150 ca         1 231      -0.130000
     11 CAA         -0.6910     0.0030     5.5840 ca         1 231      -0.131000
     12 HAI         -0.6290    -0.0000    -0.8820 h5         1 231       0.065100
     13 HNAJ         1.9450    -0.0010    -0.8060 hn         1 231       0.299700
     14 HAK          2.7830     0.0000     1.6630 h4         1 231       0.177000
     15 HAB         -1.5680     0.0040     3.6330 ha         1 231       0.137500
     16 HAF          2.7200    -0.0090     3.7860 ha         1 231       0.137500
     17 HAE          2.6230    -0.0070     6.2480 ha         1 231       0.128500
     18 HAC          0.4440     0.0020     7.3980 ha         1 231       0.127000
     19 HAA         -1.6460     0.0060     6.0950 ha         1 231       0.128500
@<TRIPOS>BOND
     1     1     2 1
     2     1     4 2
     3     1    12 1
     4     2     3 1
     5     2    13 1
     6     3     5 2
     7     3    14 1
     8     4     5 1
     9     5     6 1
    10     6     7 ar
    11     6     8 ar
    12     7    11 ar
    13     7    15 1
    14     8     9 ar
    15     8    16 1
    16     9    10 ar
    17     9    17 1
    18    10    11 ar
    19    10    18 1
    20    11    19 1
@<TRIPOS>SUBSTRUCTURE
     1 231         1 TEMP              0 ****  ****    0 ROOT
