@<TRIPOS>MOLECULE
molecule
   50    50     1     0     0
SMALL
bcc


@<TRIPOS>ATOM
      1 C1           0.0000     0.0000     0.0000 c3         1 233       0.308500
      2 C2           1.5310     0.0000     0.0000 c3         1 233       0.103100
      3 C3           2.0310     0.0000     1.4480 c3         1 233       0.115100
      4 C4           1.3800     1.1710     2.1900 c3         1 233       0.098100
      5 C5          -0.1390     1.0840     2.0250 c3         1 233       0.143100
      6 C6          -0.8000     2.2310     2.7920 c3         1 233       0.149400
      7 O2           2.0090    -1.1680    -0.6720 oh         1 233      -0.599800
      8 O3           3.4510     0.1490     1.4690 oh         1 233      -0.596800
      9 O4           1.8500     2.4050     1.6450 oh         1 233      -0.580800
     10 O5          -0.4810     1.1770     0.6440 os         1 233      -0.377600
     11 O6          -2.2190     2.1480     2.6450 oh         1 233      -0.591800
     12 N1          -0.4880    -0.0340    -1.3800 ns         1 233      -0.565900
     13 O7          -2.3180    -1.1340    -0.7800 o          1 233      -0.600100
     14 C7          -1.6630    -0.6270    -1.6660 c          1 233       0.669100
     15 C8          -2.1640    -0.6620    -3.0860 c3         1 233      -0.156400
     16 C9          -3.5110    -1.3870    -3.1350 c3         1 233      -0.066400
     17 C10         -4.0200    -1.4230    -4.5760 c3         1 233      -0.081400
     18 C11         -5.3660    -2.1480    -4.6250 c3         1 233      -0.100400
     19 C12         -5.8750    -2.1840    -6.0660 c3         1 233       0.131000
     20 N13         -7.1640    -2.8780    -6.1130 ns         1 233      -0.574900
     21 C14         -7.8050    -3.0310    -7.2880 c          1 233       0.753100
     22 O15         -7.3160    -2.5920    -8.3090 o          1 233      -0.613000
     23 O16         -8.9900    -3.6690    -7.3310 os         1 233      -0.456900
     24 C17         -9.6820    -3.8330    -8.5970 c3         1 233       0.167700
     25 H1          -0.3580    -0.8720     0.5340 h2         1 233       0.083700
     26 H2           1.8910     0.8880    -0.5060 h1         1 233       0.072700
     27 H3           1.7520    -0.9310     1.9270 h1         1 233       0.052700
     28 H4           1.6310     1.1160     3.2430 h1         1 233       0.041700
     29 H5          -0.4870     0.1360     2.4170 h1         1 233       0.058700
     30 H9          -0.4500     3.1780     2.3980 h1         1 233       0.032700
     31 H10         -0.5410     2.1600     3.8420 h1         1 233       0.032700
     32 H6           2.7260    -0.9340    -1.2370 ho         1 233       0.412000
     33 H7           3.8300    -0.5250     2.0080 ho         1 233       0.406000
     34 H8           2.4490     2.8090     2.2520 ho         1 233       0.406000
     35 H11         -2.6310     2.7890     3.2010 ho         1 233       0.402000
     36 H12          0.0470     0.3930    -2.1100 hn         1 233       0.317500
     37 H13         -1.4490    -1.1860    -3.7080 hc         1 233       0.061200
     38 H14         -2.2860     0.3510    -3.4510 hc         1 233       0.061200
     39 H15         -4.2260    -0.8620    -2.5130 hc         1 233       0.060700
     40 H16         -3.3890    -2.3990    -2.7690 hc         1 233       0.060700
     41 H17         -3.3040    -1.9470    -5.1980 hc         1 233       0.043700
     42 H18         -4.1420    -0.4100    -4.9410 hc         1 233       0.043700
     43 H19         -5.2430    -3.1610    -4.2610 hc         1 233       0.050200
     44 H20         -6.0810    -1.6240    -4.0030 hc         1 233       0.050200
     45 H21         -5.1600    -2.7080    -6.6890 h1         1 233       0.053700
     46 H22         -5.9970    -1.1710    -6.4310 h1         1 233       0.053700
     47 H23         -7.5680    -3.2390    -5.2720 hn         1 233       0.323500
     48 H24        -10.6110    -4.3670    -8.4350 h1         1 233       0.047700
     49 H25         -9.0560    -4.3960    -9.2800 h1         1 233       0.047700
     50 H26         -9.8940    -2.8590    -9.0220 h1         1 233       0.047700
@<TRIPOS>BOND
     1     1     2 1
     2     1    10 1
     3     1    12 1
     4     1    25 1
     5     2     3 1
     6     2     7 1
     7     2    26 1
     8     3     4 1
     9     3     8 1
    10     3    27 1
    11     4     5 1
    12     4     9 1
    13     4    28 1
    14     5     6 1
    15     5    10 1
    16     5    29 1
    17     6    11 1
    18     6    30 1
    19     6    31 1
    20     7    32 1
    21     8    33 1
    22     9    34 1
    23    11    35 1
    24    12    14 1
    25    12    36 1
    26    13    14 2
    27    14    15 1
    28    15    16 1
    29    15    37 1
    30    15    38 1
    31    16    17 1
    32    16    39 1
    33    16    40 1
    34    17    18 1
    35    17    41 1
    36    17    42 1
    37    18    19 1
    38    18    43 1
    39    18    44 1
    40    19    20 1
    41    19    45 1
    42    19    46 1
    43    20    21 1
    44    20    47 1
    45    21    22 2
    46    21    23 1
    47    23    24 1
    48    24    48 1
    49    24    49 1
    50    24    50 1
@<TRIPOS>SUBSTRUCTURE
     1 233         1 TEMP              0 ****  ****    0 ROOT
