@<TRIPOS>MOLECULE
234
   45    47     1     0     0
SMALL
bcc


@<TRIPOS>ATOM
      1 C1          1.1220    1.0240    0.1530 ca        1 234      0.138900
      2 C2          1.6370   -0.2240    0.5860 ca        1 234     -0.111500
      3 C3          1.2640   -0.6920    1.8540 ca        1 234     -0.081000
      4 C4          0.4220    0.0490    2.6920 ca        1 234     -0.096800
      5 C5         -0.0800    1.2780    2.2440 ca        1 234     -0.111000
      6 C6          0.2610    1.7620    0.9880 ca        1 234     -0.174000
      7 C7          2.5220   -1.0040   -0.2340 cc        1 234      0.225200
      8 O12         2.9840   -2.2370    0.3110 os        1 234     -0.168100
      9 N13         3.7910   -2.8320   -0.5590 nc        1 234     -0.374300
     10 C14         3.9050   -2.0780   -1.6610 cd        1 234      0.301800
     11 C15         3.0870   -0.8710   -1.4870 cd        1 234     -0.277600
     12 C16         4.7340   -2.3740   -2.9140 c         1 234      0.837100
     13 O1          5.9250   -1.9740   -2.9080 o         1 234     -0.798800
     14 O2          4.1420   -2.9610   -3.8540 o         1 234     -0.798800
     15 C8          0.0770   -0.4960    3.9970 ce        1 234     -0.081200
     16 C32         1.9540    1.7120    6.9700 ca        1 234      0.202100
     17 C33         2.8530    1.0210    6.1450 ca        1 234     -0.234000
     18 C34         4.1630    0.8220    6.5690 ca        1 234     -0.034000
     19 C35         4.5940    1.2950    7.8050 ca        1 234     -0.257000
     20 C36         3.6900    1.9790    8.6320 ca        1 234      0.190100
     21 C37         2.3630    2.2040    8.2280 ca        1 234     -0.180600
     22 C38         1.4290    2.9480    9.0890 c         1 234      0.683700
     23 O11         1.2080    4.1590    9.1280 o         1 234     -0.533000
     24 O4          0.7310    2.1400    9.9500 os        1 234     -0.426900
     25 C39        -0.2020    2.7870   10.8130 c3        1 234      0.126700
     26 O14         4.0530    2.4620    9.8670 oh        1 234     -0.492100
     27 O3          0.6400    1.9620    6.6460 os        1 234     -0.323900
     28 C40         0.2180    1.6350    5.3150 c3        1 234      0.160600
     29 C41        -0.0050    0.1770    5.1500 c2        1 234     -0.218200
     30 F1          1.4380    1.5310   -1.0600 f         1 234     -0.129900
     31 H3          1.6550   -1.6680    2.1900 ha        1 234      0.163000
     32 H5         -0.7620    1.8580    2.8830 ha        1 234      0.128000
     33 H6         -0.1350    2.7230    0.6310 ha        1 234      0.143000
     34 H15         2.9760   -0.0700   -2.2120 ha        1 234      0.175000
     35 H8         -0.1060   -1.5870    3.9960 ha        1 234      0.135000
     36 H33         2.5250    0.6240    5.1720 ha        1 234      0.163000
     37 H34         4.8670    0.2820    5.9160 ha        1 234      0.147000
     38 H35         5.6300    1.1360    8.1340 ha        1 234      0.138000
     39 H391       -0.9790    3.3150   10.2100 h1        1 234      0.045700
     40 H392       -0.6430    1.9480   11.4040 h1        1 234      0.045700
     41 H393        0.3290    3.5160   11.4720 h1        1 234      0.045700
     42 H14         4.9920    2.2630    9.9990 ho        1 234      0.424000
     43 H401       -0.7600    2.1920    5.2400 h1        1 234      0.072200
     44 H402        0.9430    2.0460    4.5630 h1        1 234      0.072200
     45 H41        -0.2590   -0.3520    6.0850 ha        1 234      0.140000
@<TRIPOS>BOND
     1    1    2 ar
     2    1    6 ar
     3    1   30 1
     4    2    3 ar
     5    2    7 1
     6    3    4 ar
     7    3   31 1
     8    4    5 ar
     9    4   15 1
    10    5    6 ar
    11    5   32 1
    12    6   33 1
    13    7    8 1
    14    7   11 2
    15    8    9 1
    16    9   10 2
    17   10   11 1
    18   10   12 1
    19   11   34 1
    20   12   13 1
    21   12   14 1
    22   15   29 2
    23   15   35 1
    24   16   17 ar
    25   16   21 ar
    26   16   27 1
    27   17   18 ar
    28   17   36 1
    29   18   19 ar
    30   18   37 1
    31   19   20 ar
    32   19   38 1
    33   20   21 ar
    34   20   26 1
    35   21   22 1
    36   22   23 2
    37   22   24 1
    38   24   25 1
    39   25   39 1
    40   25   40 1
    41   25   41 1
    42   26   42 1
    43   27   28 1
    44   28   29 1
    45   28   43 1
    46   28   44 1
    47   29   45 1
@<TRIPOS>SUBSTRUCTURE
     1 234         1 TEMP              0 ****  ****    0 ROOT
