@<TRIPOS>MOLECULE
molecule
   56    57     1     0     0
SMALL
bcc


@<TRIPOS>ATOM
      1 C35          0.0000     0.0000     0.0000 ca         1 235      -0.008500
      2 C36          1.3820     0.0000     0.0000 ca         1 235      -0.156500
      3 C37          2.0740     0.0000     1.1960 ca         1 235      -0.091000
      4 C38          1.3820     0.0010     2.3940 ca         1 235      -0.156500
      5 C39          0.0010     0.0030     2.3950 ca         1 235      -0.008500
      6 C34         -0.6910     0.0010     1.1980 ca         1 235      -0.279500
      7 S32         -2.4530     0.0010     1.1980 sy         1 235       1.421200
      8 O33         -2.8540     0.5460     2.4490 o          1 235      -0.667300
      9 O32         -2.8550     0.5460    -0.0520 o          1 235      -0.667300
     10 N31         -2.9450    -1.5800     1.1990 n7         1 235      -0.851100
     11 C27         -2.6530    -2.4370     2.3510 c3         1 235       0.079300
     12 C28         -3.9580    -2.7900     3.0680 c3         1 235      -0.069700
     13 C30         -3.6430    -3.5680     4.3470 c3         1 235      -0.092100
     14 C29         -4.7070    -1.5040     3.4240 c3         1 235      -0.092100
     15 P24         -1.8400    -3.9660     1.7810 p5         1 235       0.966400
     16 O25         -2.9300    -4.9260     1.0850 o          1 235      -0.774000
     17 O26         -0.7840    -3.6280     0.8020 o          1 235      -0.774000
     18 C15         -1.0960    -4.8260     3.2050 c3         1 235      -0.240600
     19 C1          -0.2070    -5.9670     2.7050 c3         1 235      -0.122400
     20 C2          -1.0730    -7.1100     2.2380 c          1 235       0.886600
     21 O14         -0.5070    -8.2260     1.7550 o          1 235      -0.805800
     22 O13         -2.2760    -7.0190     2.3000 o          1 235      -0.805800
     23 C3           0.6850    -6.4380     3.8240 ca         1 235       0.044700
     24 C8           2.0580    -6.3740     3.6870 ca         1 235      -0.110000
     25 C4           0.1280    -6.9280     4.9920 ca         1 235      -0.059000
     26 C5           0.9470    -7.3590     6.0190 ca         1 235      -0.133000
     27 C6           2.3210    -7.3010     5.8780 ca         1 235      -0.163000
     28 C7           2.8760    -6.8050     4.7140 ca         1 235      -0.214300
     29 C9           4.3740    -6.7360     4.5630 c3         1 235       0.160100
     30 N10          4.8570    -5.4390     5.0540 nz         1 235      -0.811600
     31 H35         -0.5420    -0.0010    -0.9380 ha         1 235       0.148000
     32 H36          1.9230    -0.0010    -0.9380 ha         1 235       0.115500
     33 H37          3.1570    -0.0010     1.1960 ha         1 235       0.106000
     34 H38          1.9240     0.0020     3.3320 ha         1 235       0.115500
     35 H39         -0.5410     0.0040     3.3330 ha         1 235       0.148000
     36 HN31        -3.4140    -1.9580     0.4010 hn         1 235       0.471800
     37 H27         -1.9960    -1.9130     3.0340 h1         1 235       0.034700
     38 H28         -4.5740    -3.3980     2.4180 hc         1 235       0.092700
     39 H301        -3.6640    -4.6300     4.1370 hc         1 235       0.028200
     40 H302        -4.3830    -3.3340     5.1030 hc         1 235       0.028200
     41 H303        -2.6590    -3.2900     4.7060 hc         1 235       0.028200
     42 H291        -4.0670    -0.8660     4.0210 hc         1 235       0.028200
     43 H292        -5.5990    -1.7500     3.9880 hc         1 235       0.028200
     44 H293        -4.9870    -0.9860     2.5140 hc         1 235       0.028200
     45 H151        -1.8810    -5.2290     3.8340 hc         1 235       0.030700
     46 H152        -0.4980    -4.1270     3.7760 hc         1 235       0.030700
     47 H1           0.4020    -5.6160     1.8810 hc         1 235       0.081700
     48 H8           2.4940    -5.9850     2.7740 ha         1 235       0.136000
     49 H4          -0.9490    -6.9730     5.1020 ha         1 235       0.175000
     50 H5           0.5120    -7.7450     6.9330 ha         1 235       0.126000
     51 H6           2.9630    -7.6390     6.6830 ha         1 235       0.094000
     52 H91          4.8320    -7.5330     5.1380 hx         1 235       0.097200
     53 H92          4.6370    -6.8480     3.5180 hx         1 235       0.097200
     54 H101         4.4940    -5.2730     5.9720 hn         1 235       0.441467
     55 H102         5.8570    -5.4460     5.0870 hn         1 235       0.441467
     56 H103         4.5490    -4.7130     4.4380 hn         1 235       0.441467
@<TRIPOS>BOND
     1     1     6 ar
     2     1     2 ar
     3     1    31 1
     4     2     3 ar
     5     2    32 1
     6     3     4 ar
     7     3    33 1
     8     4     5 ar
     9     4    34 1
    10     5     6 ar
    11     5    35 1
    12     6     7 1
    13     7    10 1
    14     7     8 2
    15     7     9 2
    16    10    11 1
    17    10    36 1
    18    11    12 1
    19    11    15 1
    20    11    37 1
    21    12    13 1
    22    12    14 1
    23    12    38 1
    24    13    39 1
    25    13    40 1
    26    13    41 1
    27    14    42 1
    28    14    43 1
    29    14    44 1
    30    15    16 1
    31    15    18 1
    32    15    17 1
    33    18    19 1
    34    18    45 1
    35    18    46 1
    36    19    23 1
    37    19    20 1
    38    19    47 1
    39    20    21 1
    40    20    22 1
    41    23    24 ar
    42    23    25 ar
    43    24    28 ar
    44    24    48 1
    45    25    26 ar
    46    25    49 1
    47    26    27 ar
    48    26    50 1
    49    27    28 ar
    50    27    51 1
    51    28    29 1
    52    29    30 1
    53    29    52 1
    54    29    53 1
    55    30    54 1
    56    30    55 1
    57    56    30 1
@<TRIPOS>SUBSTRUCTURE
     1 235         1 TEMP              0 ****  ****    0 ROOT
