@<TRIPOS>MOLECULE
molecule
   62    65     1     0     0
SMALL
bcc


@<TRIPOS>ATOM
      1 N1           0.0000     0.0000     0.0000 ns         1 237      -0.472100
      2 N3           5.2750    -1.5280    -0.0860 ns         1 237      -0.490100
      3 C4           7.3370    -3.4870     2.2470 ca         1 237      -0.102500
      4 C5           6.6180    -4.6680     2.3040 ca         1 237       0.007400
      5 C6           5.4530    -4.8070     1.5680 ca         1 237      -0.102500
      6 C7           5.0070    -3.7690     0.7750 ca         1 237      -0.140000
      7 C8           3.4150     1.3470    -2.7960 c3         1 237       0.132100
      8 C10          2.1010    -0.0020    -1.3050 c3         1 237       0.060700
      9 C13         -2.8250     0.3200     4.8890 cp         1 237       0.061000
     10 C15         -3.9380    -0.7580     6.7210 ca         1 237      -0.077000
     11 C17         -3.7720     1.6340     6.6600 ca         1 237      -0.026000
     12 C20         -0.7390     2.8990     4.6350 c3         1 237      -0.223300
     13 C22         -0.1600    -0.4790     2.3600 ca         1 237      -0.126000
     14 C24         -1.9360     0.7170     1.2570 ca         1 237       0.086900
     15 C26         -2.0850     0.2370     3.6050 cp         1 237      -0.118000
     16 C1           1.3470     0.0000     0.0000 c          1 237       0.656100
     17 O1           1.9540     0.0000     1.0510 o          1 237      -0.549100
     18 C2           5.7260    -2.5830     0.7170 ca         1 237       0.084600
     19 C3           6.8930    -2.4440     1.4560 ca         1 237      -0.140000
     20 C9           2.1530     1.4270    -1.8990 c3         1 237      -0.086400
     21 N2           3.5110    -0.3700    -1.0830 n          1 237      -0.498800
     22 C11          4.3530     0.4240    -1.9900 c3         1 237       0.068000
     23 C12          3.9540    -1.2810    -0.1950 c          1 237       0.811100
     24 O2           3.1650    -1.8790     0.5080 o          1 237      -0.618100
     25 O3           4.0010     2.6400    -2.9630 os         1 237      -0.411600
     26 C14         -3.2550    -0.8430     5.5260 ca         1 237      -0.136000
     27 C16         -4.1970     0.4770     7.2890 ca         1 237      -0.151000
     28 C18         -3.0880     1.5620     5.4640 ca         1 237      -0.286500
     29 S1          -2.5480     3.0370     4.6660 sy         1 237       1.194300
     30 C19          4.6780     2.8150    -4.2090 c3         1 237       0.125700
     31 O4          -2.9530     4.0790     5.5440 o          1 237      -0.626300
     32 O5          -3.0780     2.9380     3.3510 o          1 237      -0.626300
     33 C23         -0.7000     0.0790     1.2090 ca         1 237       0.035600
     34 C25         -2.6270     0.7960     2.4490 ca         1 237      -0.091000
     35 C27         -0.8470    -0.4010     3.5540 ca         1 237      -0.105000
     36 HN1         -0.5000    -0.0830    -0.8630 hn         1 237       0.329500
     37 HN3          5.9340    -0.8910    -0.4870 hn         1 237       0.321500
     38 H4           8.2470    -3.3790     2.8240 ha         1 237       0.145000
     39 H6           4.8920    -5.7330     1.6130 ha         1 237       0.145000
     40 H7           4.0950    -3.8800     0.1990 ha         1 237       0.148500
     41 H8           3.1740     0.9020    -3.7540 h1         1 237       0.052700
     42 H10          1.6420    -0.6840    -2.0110 h1         1 237       0.065700
     43 H15         -4.2720    -1.6620     7.2170 ha         1 237       0.135000
     44 H17         -3.9770     2.5980     7.1090 ha         1 237       0.161000
     45 H201        -0.4000     2.8320     3.6080 h1         1 237       0.103700
     46 H202        -0.4350     2.0100     5.1740 h1         1 237       0.103700
     47 H203        -0.3020     3.7720     5.1030 h1         1 237       0.103700
     48 H22          0.8020    -0.9750     2.3210 ha         1 237       0.192000
     49 H3           7.4560    -1.5190     1.4120 ha         1 237       0.148500
     50 H91          2.2820     2.1660    -1.1170 hc         1 237       0.078200
     51 H92          1.2700     1.6300    -2.4940 hc         1 237       0.078200
     52 H111         4.8890    -0.2340    -2.6640 h1         1 237       0.052700
     53 H112         5.0520     1.0210    -1.4160 h1         1 237       0.052700
     54 H14         -3.0540    -1.8100     5.0830 ha         1 237       0.143000
     55 H16         -4.7330     0.5380     8.2280 ha         1 237       0.137000
     56 H191         3.9690     2.7180    -5.0220 h1         1 237       0.034700
     57 H192         5.4480     2.0600    -4.3110 h1         1 237       0.034700
     58 H193         5.1300     3.7990    -4.2390 h1         1 237       0.034700
     59 H25         -3.5890     1.2920     2.4860 ha         1 237       0.194000
     60 H27         -0.4240    -0.8370     4.4510 ha         1 237       0.142000
     61 F1          -2.4600     1.2590     0.1350 f          1 237      -0.141900
     62 Cl1          7.1760    -5.9760     3.2980 cl         1 237      -0.113400
@<TRIPOS>BOND
     1     1    33 1
     2     1    16 1
     3     1    36 1
     4     2    23 1
     5     2    18 1
     6     2    37 1
     7     3    19 ar
     8     3     4 ar
     9     3    38 1
    10     4    62 1
    11     4     5 ar
    12     5     6 ar
    13     5    39 1
    14     6    18 ar
    15     6    40 1
    16     7    20 1
    17     7    25 1
    18     7    22 1
    19     7    41 1
    20     8    16 1
    21     8    20 1
    22     8    21 1
    23     8    42 1
    24     9    28 ar
    25     9    26 ar
    26     9    15 1
    27    10    27 ar
    28    10    26 ar
    29    10    43 1
    30    11    27 ar
    31    11    28 ar
    32    11    44 1
    33    12    29 1
    34    12    45 1
    35    12    46 1
    36    12    47 1
    37    13    35 ar
    38    13    33 ar
    39    13    48 1
    40    14    34 ar
    41    14    33 ar
    42    14    61 1
    43    15    35 ar
    44    15    34 ar
    45    16    17 2
    46    18    19 ar
    47    19    49 1
    48    20    50 1
    49    20    51 1
    50    21    23 1
    51    21    22 1
    52    22    52 1
    53    22    53 1
    54    23    24 2
    55    25    30 1
    56    26    54 1
    57    27    55 1
    58    28    29 1
    59    29    31 2
    60    29    32 2
    61    30    56 1
    62    30    57 1
    63    30    58 1
    64    34    59 1
    65    35    60 1
@<TRIPOS>SUBSTRUCTURE
     1 237         1 TEMP              0 ****  ****    0 ROOT
