@<TRIPOS>MOLECULE
238
   42    45     1     0     0
SMALL
bcc


@<TRIPOS>ATOM
      1 F1          0.0920    0.3840    0.1940 f         1 238     -0.136900
      2 C19         1.4260    0.1710    0.0840 ca        1 238      0.130900
      3 C22         2.1980    0.1450    1.2630 ca        1 238     -0.172000
      4 C21         3.5690   -0.0660    1.1900 ca        1 238     -0.116000
      5 C20         4.1830   -0.2510   -0.0480 ca        1 238     -0.148000
      6 C18         3.4240   -0.2250   -1.2140 ca        1 238     -0.103000
      7 C17         2.0370   -0.0150   -1.1780 cp        1 238     -0.044000
      8 C16         1.2830    0.0050   -2.4290 cp        1 238     -0.063000
      9 C12         1.7990    0.6840   -3.5440 ca        1 238     -0.120000
     10 C13         0.0600   -0.6670   -2.5500 ca        1 238     -0.120000
     11 C9         -0.6280   -0.6720   -3.7610 ca        1 238     -0.109500
     12 C23        -0.1110    0.0070   -4.8700 cp        1 238     -0.102500
     13 C8          1.1080    0.6870   -4.7510 ca        1 238     -0.109500
     14 C3         -0.8300   -0.0140   -6.1640 cp        1 238      0.456800
     15 N1         -1.1110   -1.2150   -6.6780 nb        1 238     -0.691000
     16 C7         -1.7500   -1.2640   -7.8940 ca        1 238      0.384600
     17 C11        -2.0620   -2.5410   -8.4740 ca        1 238     -0.180300
     18 C15        -2.6760   -2.6200   -9.6940 ca        1 238     -0.129000
     19 C14        -3.0070   -1.4360  -10.4040 ca        1 238     -0.018600
     20 CL1        -3.7560   -1.5930  -11.9310 cl        1 238     -0.132400
     21 C10        -2.7310   -0.1940   -9.8860 ca        1 238     -0.055000
     22 C6         -2.1100   -0.0830   -8.6110 ca        1 238     -0.123300
     23 C4         -1.8310    1.1850   -8.0220 ca        1 238     -0.053600
     24 C5         -2.2570    2.4610   -8.7540 c         1 238      0.908200
     25 O2         -3.1040    3.2030   -8.1890 o         1 238     -0.811300
     26 O1         -1.7420    2.6810   -9.8840 o         1 238     -0.811300
     27 C2         -1.1880    1.2270   -6.7940 ca        1 238     -0.179600
     28 C1         -0.8920    2.5220   -6.1390 c3        1 238     -0.058800
     29 H22         1.7000    0.2950    2.2320 ha        1 238      0.142000
     30 H21         4.1680   -0.0860    2.1120 ha        1 238      0.129000
     31 H20         5.2680   -0.4200   -0.1050 ha        1 238      0.130000
     32 H18         3.9120   -0.3760   -2.1900 ha        1 238      0.143000
     33 H12         2.7540    1.2240   -3.4600 ha        1 238      0.129000
     34 H13        -0.3590   -1.1930   -1.6790 ha        1 238      0.129000
     35 H9         -1.5810   -1.2150   -3.8490 ha        1 238      0.147000
     36 H8          1.5140    1.2280   -5.6200 ha        1 238      0.147000
     37 H11        -1.7960   -3.4550   -7.9220 ha        1 238      0.134000
     38 H15        -2.9160   -3.5980  -10.1370 ha        1 238      0.128000
     39 H10        -2.9560    0.7420  -10.4330 ha        1 238      0.196000
     40 H11A       -1.6640    3.2830   -6.4300 hc        1 238      0.051700
     41 H12A       -0.8850    2.4210   -5.0270 hc        1 238      0.051700
     42 H13A        0.1100    2.8970   -6.4680 hc        1 238      0.051700
@<TRIPOS>BOND
     1    1    2 1   
     2    2    3 ar  
     3    2    7 ar  
     4    3    4 ar  
     5    3   29 1   
     6    4    5 ar  
     7    4   30 1   
     8    5    6 ar  
     9    5   31 1   
    10    6    7 ar  
    11    6   32 1   
    12    7    8 1   
    13    8    9 ar  
    14    8   10 ar  
    15    9   13 ar  
    16    9   33 1   
    17   10   11 ar  
    18   10   34 1   
    19   11   12 ar  
    20   11   35 1   
    21   12   13 ar  
    22   12   14 1   
    23   13   36 1   
    24   14   15 ar  
    25   14   27 ar  
    26   15   16 ar  
    27   16   17 ar  
    28   16   22 ar  
    29   17   18 ar  
    30   17   37 1   
    31   18   19 ar  
    32   18   38 1   
    33   19   20 1   
    34   19   21 ar  
    35   21   22 ar  
    36   21   39 1   
    37   22   23 ar  
    38   23   24 1   
    39   23   27 ar  
    40   24   25 1   
    41   24   26 1   
    42   27   28 1   
    43   28   40 1   
    44   28   41 1   
    45   28   42 1   
@<TRIPOS>SUBSTRUCTURE
     1 238         1 TEMP              0 ****  ****    0 ROOT
