@<TRIPOS>MOLECULE
molecule
   42    45     1     0     0
SMALL
bcc


@<TRIPOS>ATOM
      1 F1           0.0000     0.0000     0.0000 f          1 238      -0.133900
      2 C19          1.3500     0.0000     0.0000 ca         1 238       0.139900
      3 C22          2.0430     0.0000     1.1960 ca         1 238      -0.172000
      4 C21          3.4260    -0.0000     1.1970 ca         1 238      -0.114000
      5 C20          4.1240    -0.0010     0.0030 ca         1 238      -0.148000
      6 C18          3.4450    -0.0030    -1.1980 ca         1 238      -0.096000
      7 C17          2.0510    -0.0080    -1.2080 cp         1 238      -0.056000
      8 C16          1.3150    -0.0140    -2.4940 cp         1 238      -0.061000
      9 C12          1.6430     0.9040    -3.4910 ca         1 238      -0.122000
     10 C13          0.2980    -0.9450    -2.7110 ca         1 238      -0.122000
     11 C9          -0.3860    -0.9530    -3.9070 ca         1 238      -0.108000
     12 C23         -0.0610    -0.0290    -4.9010 cp         1 238      -0.115500
     13 C8           0.9590     0.8980    -4.6870 ca         1 238      -0.108000
     14 C3          -0.7970    -0.0360    -6.1870 cp         1 238       0.493800
     15 N1          -1.1990    -1.1870    -6.6820 nb         1 238      -0.724000
     16 C7          -1.8660    -1.2750    -7.8350 ca         1 238       0.417600
     17 C11         -2.2840    -2.5210    -8.3390 ca         1 238      -0.179300
     18 C15         -2.9640    -2.5790    -9.5160 ca         1 238      -0.124000
     19 C14         -3.2550    -1.4210   -10.2370 ca         1 238      -0.006600
     20 Cl1         -4.1220    -1.5400   -11.7360 cl         1 238      -0.142400
     21 C10         -2.8650    -0.1960    -9.7780 ca         1 238      -0.050000
     22 C6          -2.1650    -0.1010    -8.5720 ca         1 238      -0.141300
     23 C4          -1.7270     1.1910    -8.0410 ca         1 238      -0.002600
     24 C5          -2.0060     2.4510    -8.7600 c          1 238       0.875200
     25 O2          -3.0320     3.0640    -8.5360 o          1 238      -0.815800
     26 O1          -1.1260     2.9210    -9.6650 o          1 238      -0.815800
     27 C2          -1.0450     1.1850    -6.8330 ca         1 238      -0.211600
     28 C1          -0.5690     2.4780    -6.2220 c3         1 238      -0.042800
     29 H22          1.5020     0.0000     2.1350 ha         1 238       0.139000
     30 H21          3.9650     0.0000     2.1370 ha         1 238       0.127000
     31 H20          5.2080     0.0010     0.0100 ha         1 238       0.128000
     32 H18          3.9940    -0.0060    -2.1320 ha         1 238       0.143000
     33 H12          2.4350     1.6240    -3.3250 ha         1 238       0.127500
     34 H13          0.0460    -1.6620    -1.9390 ha         1 238       0.127500
     35 H9          -1.1760    -1.6740    -4.0740 ha         1 238       0.154500
     36 H8           1.2130     1.6130    -5.4600 ha         1 238       0.154500
     37 H11         -2.0660    -3.4300    -7.7910 ha         1 238       0.135000
     38 H15         -3.2840    -3.5400    -9.9000 ha         1 238       0.125000
     39 H10         -3.0960     0.6970   -10.3460 ha         1 238       0.178000
     40 H11A         0.4590     2.6580    -6.5130 hc         1 238       0.048367
     41 H12A        -1.1910     3.2930    -6.5720 hc         1 238       0.048367
     42 H13A        -0.6330     2.4120    -5.1430 hc         1 238       0.048367
@<TRIPOS>BOND
     1     1     2 1
     2     2     3 ar
     3     2     7 ar
     4     3     4 ar
     5     3    29 1
     6     4     5 ar
     7     4    30 1
     8     5     6 ar
     9     5    31 1
    10     6     7 ar
    11     6    32 1
    12     7     8 1
    13     8     9 ar
    14     8    10 ar
    15     9    13 ar
    16     9    33 1
    17    10    11 ar
    18    10    34 1
    19    11    12 ar
    20    11    35 1
    21    12    13 ar
    22    12    14 1
    23    13    36 1
    24    14    27 ar
    25    14    15 ar
    26    15    16 ar
    27    16    22 ar
    28    16    17 ar
    29    17    18 ar
    30    17    37 1
    31    18    19 ar
    32    18    38 1
    33    19    21 ar
    34    19    20 1
    35    21    22 ar
    36    21    39 1
    37    22    23 ar
    38    23    24 1
    39    23    27 ar
    40    24    25 1
    41    24    26 1
    42    27    28 1
    43    28    40 1
    44    28    41 1
    45    28    42 1
@<TRIPOS>SUBSTRUCTURE
     1 238         1 TEMP              0 ****  ****    0 ROOT
