@<TRIPOS>MOLECULE
molecule
   44    46     1     0     0
SMALL
bcc


@<TRIPOS>ATOM
      1 N18          0.0000     0.0000     0.0000 n2         1 239      -0.712100
      2 C17          1.3020     0.0000     0.0000 ce         1 239       0.518800
      3 N19          1.9900     0.0000     1.1940 nz         1 239      -0.741600
      4 C12          2.0420    -0.0020    -1.2820 ca         1 239      -0.220900
      5 C13          1.3460    -0.0030    -2.4770 ca         1 239      -0.049000
      6 C3           2.0520    -0.0040    -3.6890 ca         1 239      -0.020000
      7 C4           1.3720    -0.0050    -4.9220 ca         1 239      -0.103000
      8 C5           2.0730    -0.0060    -6.0840 ca         1 239      -0.093000
      9 C6           3.4800    -0.0060    -6.0780 ca         1 239      -0.128600
     10 C1           4.1760    -0.0100    -4.8820 ca         1 239      -0.038000
     11 C2           3.4700    -0.0040    -3.6700 ca         1 239      -0.027000
     12 C10          4.1490    -0.0020    -2.4380 ca         1 239      -0.054000
     13 C11          3.4470    -0.0020    -1.2750 ca         1 239      -0.150000
     14 C23          4.2170    -0.0060    -7.3570 c          1 239       0.678700
     15 O35          5.4330    -0.0050    -7.3580 o          1 239      -0.578100
     16 N24          3.5450    -0.0060    -8.5240 ns         1 239      -0.473100
     17 C25          4.2390    -0.1220    -9.7320 ca         1 239       0.111600
     18 C30          3.7710     0.5240   -10.8690 ca         1 239      -0.136500
     19 C29          4.4590     0.4060   -12.0600 ca         1 239      -0.075500
     20 C28          5.6130    -0.3540   -12.1230 ca         1 239      -0.217300
     21 C27          6.0760    -1.0040   -10.9950 ca         1 239      -0.075500
     22 C26          5.3960    -0.8860    -9.7990 ca         1 239      -0.136500
     23 C37          6.3590    -0.4800   -13.4250 c3         1 239       0.163100
     24 N38          7.3560     0.5940   -13.5240 nz         1 239      -0.810600
     25 H18         -0.5020    -0.0010    -0.8660 hn         1 239       0.481400
     26 H191         2.5630    -0.8180     1.2490 hn         1 239       0.476467
     27 H192         1.3380     0.0020     1.9530 hn         1 239       0.476467
     28 H13          0.2700     0.1220    -2.4770 ha         1 239       0.146000
     29 H4           0.2890    -0.0060    -4.9430 ha         1 239       0.155000
     30 H5           1.5420    -0.0030    -7.0280 ha         1 239       0.140000
     31 H1           5.2600    -0.0090    -4.8820 ha         1 239       0.177000
     32 H10          5.2320    -0.0010    -2.4170 ha         1 239       0.165000
     33 H11          3.9780    -0.0020    -0.3300 ha         1 239       0.115000
     34 H24          2.5470     0.0790    -8.5270 hn         1 239       0.341500
     35 H30          2.8680     1.1200   -10.8210 ha         1 239       0.170000
     36 H29          4.0960     0.9120   -12.9460 ha         1 239       0.142500
     37 H27          6.9800    -1.5990   -11.0470 ha         1 239       0.142500
     38 H26          5.7610    -1.3960    -8.9160 ha         1 239       0.170000
     39 H371         5.6620    -0.4020   -14.2510 hx         1 239       0.113700
     40 H372         6.8580    -1.4410   -13.4640 hx         1 239       0.113700
     41 H381         6.9030     1.4800   -13.4210 hn         1 239       0.455800
     42 H382         8.0390     0.4830   -12.8000 hn         1 239       0.455800
     43 H193         2.5670     0.8150     1.2460 hn         1 239       0.476467
     44 H383         7.8070     0.5500   -14.4160 hn         1 239       0.455800
@<TRIPOS>BOND
     1     1     2 2
     2     1    25 1
     3     2     3 1
     4     2     4 1
     5     3    26 1
     6     3    27 1
     7     4     5 ar
     8     4    13 ar
     9     5     6 ar
    10     5    28 1
    11     6     7 ar
    12     6    11 ar
    13     7     8 ar
    14     7    29 1
    15     8     9 ar
    16     8    30 1
    17     9    10 ar
    18     9    14 1
    19    10    11 ar
    20    10    31 1
    21    11    12 ar
    22    12    13 ar
    23    12    32 1
    24    13    33 1
    25    14    15 2
    26    14    16 1
    27    16    17 1
    28    16    34 1
    29    17    18 ar
    30    17    22 ar
    31    18    19 ar
    32    18    35 1
    33    19    20 ar
    34    19    36 1
    35    20    21 ar
    36    20    23 1
    37    21    22 ar
    38    21    37 1
    39    22    38 1
    40    23    24 1
    41    23    39 1
    42    23    40 1
    43    24    41 1
    44    24    42 1
    45    43     3 1
    46    44    24 1
@<TRIPOS>SUBSTRUCTURE
     1 239         1 TEMP              0 ****  ****    0 ROOT
