@<TRIPOS>MOLECULE
239
   44    46     1     0     0
SMALL
bcc


@<TRIPOS>ATOM
      1 N18          0.0000     0.0000     0.0000 n2         1 239      -0.459100
      2 C17          1.3020     0.0000     0.0000 ce         1 239       0.231800
      3 N19          1.9900     0.0000     1.1940 nz         1 239       0.124400
      4 C12          2.0420    -0.0020    -1.2820 ca         1 239      -0.194900
      5 C13          1.3460    -0.0030    -2.4770 ca         1 239       0.026000
      6 C3           2.0520    -0.0040    -3.6890 ca         1 239      -0.034000
      7 C4           1.3720    -0.0050    -4.9220 ca         1 239      -0.063000
      8 C5           2.0730    -0.0060    -6.0840 ca         1 239      -0.075000
      9 C6           3.4800    -0.0060    -6.0780 ca         1 239      -0.144600
     10 C1           4.1760    -0.0100    -4.8820 ca         1 239      -0.003000
     11 C2           3.4700    -0.0040    -3.6700 ca         1 239      -0.030000
     12 C10          4.1490    -0.0020    -2.4380 ca         1 239      -0.022000
     13 C11          3.4470    -0.0020    -1.2750 ca         1 239      -0.133000
     14 C23          4.2170    -0.0060    -7.3570 c          1 239       0.590700
     15 O35          5.4330    -0.0050    -7.3580 o          1 239      -0.622100
     16 N24          3.5450    -0.0060    -8.5240 ns         1 239      -0.033100
     17 C25          4.2390    -0.1220    -9.7320 ca         1 239      -0.030400
     18 C30          3.7710     0.5240   -10.8690 ca         1 239      -0.106500
     19 C29          4.4590     0.4060   -12.0600 ca         1 239      -0.038500
     20 C28          5.6130    -0.3540   -12.1230 ca         1 239      -0.234300
     21 C27          6.0760    -1.0040   -10.9950 ca         1 239      -0.038500
     22 C26          5.3960    -0.8860    -9.7990 ca         1 239      -0.106500
     23 C37          6.3590    -0.4800   -13.4250 c3         1 239       0.042100
     24 N38          7.3560     0.5940   -13.5240 nz         1 239       0.074400
     25 H18         -0.5010     0.0010     0.8660 hn         1 239       0.341400
     26 H191         1.3380     0.0030     1.9540 hn         1 239       0.228800
     27 H192         2.5630    -0.8180     1.2490 hn         1 239       0.228800
     28 H13          0.2700    -0.1260    -2.4760 ha         1 239       0.136000
     29 H4           0.2890    -0.0060    -4.9430 ha         1 239       0.124000
     30 H5           1.5420    -0.0030    -7.0280 ha         1 239       0.109000
     31 H1           5.2600    -0.0090    -4.8820 ha         1 239       0.141000
     32 H10          5.2320    -0.0010    -2.4170 ha         1 239       0.127000
     33 H11          3.9780    -0.0020    -0.3300 ha         1 239       0.084000
     34 H24          2.5480     0.0800    -8.5270 hn         1 239       0.187500
     35 H30          2.8680     1.1200   -10.8210 ha         1 239       0.141500
     36 H29          4.0960     0.9120   -12.9460 ha         1 239       0.111500
     37 H27          6.9800    -1.5990   -11.0470 ha         1 239       0.111500
     38 H26          5.7610    -1.3960    -8.9160 ha         1 239       0.141500
     39 H371         6.8580    -1.4410   -13.4640 hx         1 239       0.082700
     40 H372         5.6620    -0.4020   -14.2510 hx         1 239       0.082700
     41 H381         8.0390     0.4820   -12.8010 hn         1 239       0.223467
     42 H382         6.9030     1.4800   -13.4210 hn         1 239       0.223467
     43 H193         2.5610     0.8200     1.2500 hn         1 239       0.228800
     44 H383         7.8070     0.5500   -14.4160 hn         1 239       0.223467
@<TRIPOS>BOND
     1     1     2 2   
     2     1    25 1   
     3     2     3 1   
     4     2     4 1   
     5     3    26 1   
     6     3    27 1   
     7     3    43 1   
     8     4     5 ar  
     9     4    13 ar  
    10     5     6 ar  
    11     5    28 1   
    12     6     7 ar  
    13     6    11 ar  
    14     7     8 ar  
    15     7    29 1   
    16     8     9 ar  
    17     8    30 1   
    18     9    10 ar  
    19     9    14 1   
    20    10    11 ar  
    21    10    31 1   
    22    11    12 ar  
    23    12    13 ar  
    24    12    32 1   
    25    13    33 1   
    26    14    15 2   
    27    14    16 1   
    28    16    17 1   
    29    16    34 1   
    30    17    18 ar  
    31    17    22 ar  
    32    18    19 ar  
    33    18    35 1   
    34    19    20 ar  
    35    19    36 1   
    36    20    21 ar  
    37    20    23 1   
    38    21    22 ar  
    39    21    37 1   
    40    22    38 1   
    41    23    24 1   
    42    23    39 1   
    43    23    40 1   
    44    24    41 1   
    45    24    42 1   
    46    24    44 1   
@<TRIPOS>SUBSTRUCTURE
     1 239         1 TEMP              0 ****  ****    0 ROOT
