@<TRIPOS>MOLECULE
23A
   16    16     1     0     0
SMALL
bcc


@<TRIPOS>ATOM
      1 C7         -0.0190    0.1460   -0.1070 c         1 23A      0.578500
      2 O8          1.2050    0.2150   -0.2020 o         1 23A     -0.502100
      3 C1         -0.7660    0.0550    1.1570 ca        1 23A     -0.204600
      4 C6         -2.1680   -0.0230    1.1120 ca        1 23A     -0.088000
      5 C5         -2.9230   -0.1110    2.2730 ca        1 23A     -0.148000
      6 C2         -0.1270    0.0420    2.4090 ca        1 23A      0.177100
      7 O2          1.2370    0.1180    2.4460 oh        1 23A     -0.458100
      8 C3         -0.9090   -0.0480    3.5900 ca        1 23A      0.021100
      9 C4         -2.2970   -0.1240    3.5220 ca        1 23A     -0.142000
     10 O3         -0.1990   -0.0540    4.7750 oh        1 23A     -0.516100
     11 H7         -0.6680    0.1480   -1.0150 h4        1 23A     -0.007800
     12 H6         -2.6720   -0.0130    0.1320 ha        1 23A      0.138000
     13 H5         -4.0200   -0.1710    2.2160 ha        1 23A      0.141000
     14 HO2         1.5200    0.0980    3.3760 ho        1 23A      0.439000
     15 H4         -2.8940   -0.1940    4.4430 ha        1 23A      0.139000
     16 HO3        -0.8350   -0.1180    5.5010 ho        1 23A      0.432000
@<TRIPOS>BOND
     1    1    2 2   
     2    1    3 1   
     3    1   11 1   
     4    3    4 ar  
     5    3    6 ar  
     6    4    5 ar  
     7    4   12 1   
     8    5    9 ar  
     9    5   13 1   
    10    6    7 1   
    11    6    8 ar  
    12    7   14 1   
    13    8    9 ar  
    14    8   10 1   
    15    9   15 1   
    16   10   16 1   
@<TRIPOS>SUBSTRUCTURE
     1 23A         1 TEMP              0 ****  ****    0 ROOT
