@<TRIPOS>MOLECULE
molecule
   16    16     1     0     0
SMALL
bcc


@<TRIPOS>ATOM
      1 C7           0.0000     0.0000     0.0000 c          1 23A       0.570500
      2 O8           1.2320     0.0000     0.0000 o          1 23A      -0.506100
      3 C1          -0.7940     0.0000     1.2210 ca         1 23A      -0.200600
      4 C6          -2.1860     0.0000     1.1250 ca         1 23A      -0.084000
      5 C5          -2.9640    -0.0000     2.2820 ca         1 23A      -0.142000
      6 C2          -0.1810    -0.0010     2.4740 ca         1 23A       0.157100
      7 O2           1.1790    -0.0030     2.5750 oh         1 23A      -0.493100
      8 C3          -0.9600    -0.0020     3.6310 ca         1 23A       0.051100
      9 C4          -2.3520    -0.0010     3.5350 ca         1 23A      -0.120000
     10 O3          -0.3740    -0.0050     4.8610 oh         1 23A      -0.515100
     11 H7          -0.5220     0.0000    -0.9490 h4         1 23A      -0.002800
     12 H6          -2.6620     0.0010     0.1520 ha         1 23A       0.139000
     13 H5          -4.0450     0.0000     2.2070 ha         1 23A       0.140000
     14 HO2          1.4730     0.8400     2.8790 ho         1 23A       0.435000
     15 H4          -2.9570    -0.0020     4.4340 ha         1 23A       0.145000
     16 HO3         -0.4440    -0.8650     5.2400 ho         1 23A       0.426000
@<TRIPOS>BOND
     1     1     2 2
     2     1     3 1
     3     1    11 1
     4     3     4 ar
     5     3     6 ar
     6     4     5 ar
     7     4    12 1
     8     5     9 ar
     9     5    13 1
    10     6     7 1
    11     6     8 ar
    12     7    14 1
    13     8     9 ar
    14     8    10 1
    15     9    15 1
    16    10    16 1
@<TRIPOS>SUBSTRUCTURE
     1 23A         1 TEMP              0 ****  ****    0 ROOT
