@<TRIPOS>MOLECULE
molecule
   18    17     1     0     0
SMALL
bcc


@<TRIPOS>ATOM
      1 C1           1.5070     0.0000     0.0000 c          1 23B       0.887600
      2 O1           2.1780    -0.4910    -1.0540 o          1 23B      -0.845300
      3 C2           0.0000     0.0000     0.0000 c3         1 23B       0.056800
      4 O2           2.1120     0.4370     0.9510 o          1 23B      -0.845300
      5 C3          -0.5090     0.0000     1.4430 c3         1 23B       0.180100
      6 O3          -0.4770    -1.1660    -0.6740 oh         1 23B      -0.616800
      7 C4          -2.0400     0.0000     1.4430 c3         1 23B      -0.125100
      8 O4          -0.0330    -1.1670     2.1160 oh         1 23B      -0.577800
      9 C5          -0.5100     1.2500    -0.7210 c3         1 23B      -0.107100
     10 H3          -0.1480     0.8840     1.9540 h1         1 23B       0.040700
     11 HO3         -0.0670    -1.2290    -1.5200 ho         1 23B       0.414000
     12 H4          -2.4010    -0.2620     2.4300 hc         1 23B       0.027367
     13 H4A         -2.4010     0.9860     1.1770 hc         1 23B       0.027367
     14 H4B         -2.4010    -0.7230     0.7220 hc         1 23B       0.027367
     15 HO4          0.0220    -0.9970     3.0420 ho         1 23B       0.375000
     16 H5           0.1180     1.4520    -1.5800 hc         1 23B       0.027367
     17 H5A         -1.5290     1.0870    -1.0480 hc         1 23B       0.027367
     18 H5B         -0.4780     2.0950    -0.0440 hc         1 23B       0.027367
@<TRIPOS>BOND
     1     4     1 1
     2     1     2 1
     3     1     3 1
     4     9     3 1
     5     3     5 1
     6     3     6 1
     7     5     7 1
     8     5     8 1
     9     5    10 1
    10     6    11 1
    11     7    12 1
    12     7    13 1
    13     7    14 1
    14     8    15 1
    15     9    16 1
    16     9    17 1
    17     9    18 1
@<TRIPOS>SUBSTRUCTURE
     1 23B         1 TEMP              0 ****  ****    0 ROOT
