@<TRIPOS>MOLECULE
23B
   18    17     1     0     0
SMALL
bcc


@<TRIPOS>ATOM
      1 C1          1.4930   -0.0620    0.1140 c         1 23B      0.896600
      2 O1          2.0550   -0.6620   -0.8450 o         1 23B     -0.832300
      3 C2         -0.0600    0.0800    0.0300 c3        1 23B     -0.007200
      4 O2          2.0870    0.4100    1.1220 o         1 23B     -0.832300
      5 C3         -0.7030    0.0310    1.4310 c3        1 23B      0.172100
      6 O3         -0.6150   -0.9620   -0.7650 oh        1 23B     -0.631800
      7 C4         -2.2000   -0.2170    1.3750 c3        1 23B     -0.082100
      8 O4         -0.1610   -0.9940    2.2530 oh        1 23B     -0.637800
      9 C5         -0.3740    1.4130   -0.6410 c3        1 23B     -0.088100
     10 H3         -0.4910    1.0250    1.9250 h1        1 23B      0.021700
     11 HO3         0.1260   -1.3690   -1.2430 ho        1 23B      0.424000
     12 H4         -2.7010    0.6250    0.8440 hc        1 23B      0.028700
     13 H4A        -2.6140   -0.3010    2.4080 hc        1 23B      0.028700
     14 H4B        -2.4040   -1.1670    0.8260 hc        1 23B      0.028700
     15 HO4         0.8030   -0.8960    2.2210 ho        1 23B      0.436000
     16 H5          0.0730    1.4220   -1.6630 hc        1 23B      0.025033
     17 H5A         0.0640    2.2470   -0.0440 hc        1 23B      0.025033
     18 H5B        -1.4760    1.5610   -0.7330 hc        1 23B      0.025033
@<TRIPOS>BOND
     1    1    2 1   
     2    1    3 1   
     3    1    4 1   
     4    3    5 1   
     5    3    6 1   
     6    3    9 1   
     7    5    7 1   
     8    5    8 1   
     9    5   10 1   
    10    6   11 1   
    11    7   12 1   
    12    7   13 1   
    13    7   14 1   
    14    8   15 1   
    15    9   16 1   
    16    9   17 1   
    17    9   18 1   
@<TRIPOS>SUBSTRUCTURE
     1 23B         1 TEMP              0 ****  ****    0 ROOT
