@<TRIPOS>MOLECULE
molecule
   42    45     1     0     0
SMALL
bcc


@<TRIPOS>ATOM
      1 CD2          0.0000     0.0000     0.0000 ca         1 23C      -0.033000
      2 CAN          1.4050     0.0000     0.0000 ca         1 23C      -0.087000
      3 CAH          2.0780     0.0000     1.1840 ca         1 23C      -0.156000
      4 CAG          1.3950     0.0010     2.3980 ca         1 23C      -0.135000
      5 CAL          0.0340     0.0020     2.4350 ca         1 23C      -0.134000
      6 CAX         -0.6960     0.0020     1.2350 ca         1 23C      -0.028000
      7 CAM         -2.1010     0.0040     1.2340 ca         1 23C      -0.152000
      8 CAI         -2.7730     0.0040     0.0510 ca         1 23C      -0.107000
      9 CD1         -2.0900     0.0030    -1.1630 ca         1 23C      -0.137000
     10 CG          -0.7300     0.0060    -1.2020 ca         1 23C      -0.042300
     11 CB          -0.0090     0.0110    -2.5250 c3         1 23C      -0.050100
     12 CA           0.3440    -1.4250    -2.9190 c3         1 23C       0.016700
     13 C            1.1710    -1.4110    -4.1790 c          1 23C       0.888600
     14 OXT          2.3500    -0.7710    -4.2020 o          1 23C      -0.833300
     15 O            0.7710    -1.9780    -5.1680 o          1 23C      -0.833300
     16 N           -0.8870    -2.1840    -3.1510 n          1 23C      -0.460400
     17 CAW         -1.2410    -3.2870    -2.4650 c          1 23C       0.729100
     18 OAD         -0.6010    -3.8020    -1.5710 o          1 23C      -0.621500
     19 CBA         -2.5400    -3.7670    -2.9830 ca         1 23C      -0.180600
     20 CAP         -3.3690    -4.8310    -2.6690 ca         1 23C      -0.043000
     21 CAT         -4.5650    -5.0040    -3.3720 ca         1 23C      -0.107600
     22 CAR         -5.4570    -6.1380    -3.0420 c          1 23C       0.886200
     23 OAE         -5.1490    -6.9160    -2.1620 o          1 23C      -0.842800
     24 OAA         -6.6090    -6.3080    -3.7180 o          1 23C      -0.842800
     25 CAK         -4.9200    -4.1120    -4.3840 ca         1 23C      -0.097000
     26 CAO         -4.0910    -3.0480    -4.6980 ca         1 23C      -0.103000
     27 CAZ         -2.9050    -2.8680    -4.0060 ca         1 23C      -0.165600
     28 CAV         -1.8140    -1.8680    -4.0720 c          1 23C       0.736100
     29 OAC         -1.7660    -0.9220    -4.8310 o          1 23C      -0.595500
     30 HAN          1.9500    -0.0010    -0.9360 ha         1 23C       0.166000
     31 HAH          3.1620    -0.0010     1.1810 ha         1 23C       0.117000
     32 HAG          1.9540     0.0010     3.3250 ha         1 23C       0.105000
     33 HAL         -0.4840     0.0030     3.3870 ha         1 23C       0.113000
     34 HAM         -2.6460     0.0060     2.1700 ha         1 23C       0.113000
     35 HAI         -3.8560     0.0010     0.0540 ha         1 23C       0.118000
     36 HD1         -2.6500     0.0020    -2.0900 ha         1 23C       0.142000
     37 HB           0.8990     0.5950    -2.4400 hc         1 23C       0.074700
     38 HBA         -0.6480     0.4460    -3.2830 hc         1 23C       0.074700
     39 HA           0.9100    -1.8890    -2.1210 h1         1 23C       0.079700
     40 HAP         -3.0370    -5.5890    -1.9700 ha         1 23C       0.158000
     41 HAK         -5.8470    -4.2520    -4.9260 ha         1 23C       0.152000
     42 HAO         -4.3700    -2.3580    -5.4850 ha         1 23C       0.120000
@<TRIPOS>BOND
     1     1     2 ar
     2     1     6 ar
     3     1    10 ar
     4     2     3 ar
     5     2    30 1
     6     3     4 ar
     7     3    31 1
     8     4     5 ar
     9     4    32 1
    10     5     6 ar
    11     5    33 1
    12     6     7 ar
    13     7     8 ar
    14     7    34 1
    15     8     9 ar
    16     8    35 1
    17     9    10 ar
    18     9    36 1
    19    10    11 1
    20    11    12 1
    21    11    37 1
    22    11    38 1
    23    12    13 1
    24    12    16 1
    25    12    39 1
    26    13    14 1
    27    13    15 1
    28    16    17 1
    29    16    28 1
    30    17    18 2
    31    17    19 1
    32    19    20 ar
    33    19    27 ar
    34    20    21 ar
    35    20    40 1
    36    21    22 1
    37    21    25 ar
    38    22    23 1
    39    22    24 1
    40    25    26 ar
    41    25    41 1
    42    26    27 ar
    43    26    42 1
    44    27    28 1
    45    28    29 2
@<TRIPOS>SUBSTRUCTURE
     1 23C         1 TEMP              0 ****  ****    0 ROOT
