@<TRIPOS>MOLECULE
23D
   52    55     1     0     0
SMALL
bcc


@<TRIPOS>ATOM
      1 CAS          0.0000     0.0000     0.0000 ca         1 23D      -0.150000
      2 CAQ          1.3890     0.0000     0.0000 ca         1 23D      -0.019600
      3 Cl1          2.2200     0.0180    -1.5190 cl         1 23D      -0.036400
      4 CAP          2.0950     0.0000     1.2020 ca         1 23D      -0.109000
      5 CAO          1.4100    -0.0090     2.4120 ca         1 23D      -0.050000
      6 CAN          0.0160    -0.0110     2.4110 ca         1 23D      -0.136000
      7 CAM         -0.7030    -0.0240     1.2050 ca         1 23D      -0.023400
      8 N6          -2.0510    -0.0180     1.2430 nu         1 23D      -0.178300
      9 C6          -2.8760    -0.4530     0.2740 ca         1 23D       0.616200
     10 N1          -2.4670    -1.0300    -0.8830 nb         1 23D      -0.844000
     11 C5          -4.2400    -0.2740     0.4710 ca         1 23D      -0.267200
     12 N7          -4.9450     0.2510     1.4720 nc         1 23D      -0.493100
     13 C8          -6.2420     0.1680     1.1520 cd         1 23D       0.205700
     14 N9          -6.3550    -0.4070    -0.0390 na         1 23D       0.316000
     15 CAZ         -7.6310    -0.6540    -0.7220 c3         1 23D      -0.057700
     16 CBA         -7.7510    -2.1160    -1.1800 c3         1 23D      -0.001100
     17 C4          -5.1410    -0.6970    -0.5070 ca         1 23D       0.267800
     18 N3          -4.6850    -1.2680    -1.6360 nb         1 23D      -0.739000
     19 C2          -3.3570    -1.4330    -1.8220 ca         1 23D       0.744900
     20 N2          -2.9510    -2.0160    -2.9550 nu         1 23D      -0.502900
     21 CAG         -1.5500    -2.0400    -3.4060 c3         1 23D       0.129500
     22 CAF         -1.3850    -1.1720    -4.6590 c3         1 23D      -0.024400
     23 CAE          0.0850    -1.0810    -5.0780 c3         1 23D      -0.023400
     24 CAD          0.9240    -2.2830    -4.6050 c3         1 23D      -0.022400
     25 CAC          0.1110    -3.5880    -4.5730 c3         1 23D      -0.014400
     26 CAA         -1.1580    -3.4910    -3.7010 c3         1 23D      -0.090500
     27 NAB         -0.9590    -4.2140    -2.4350 nz         1 23D       0.070400
     28 HAS         -0.5390    -0.0090    -0.9390 ha         1 23D       0.144000
     29 HAP          3.1780     0.0010     1.1940 ha         1 23D       0.123000
     30 HAO          1.9550    -0.0040     3.3480 ha         1 23D       0.118000
     31 HAN         -0.5190    -0.0230     3.3530 ha         1 23D       0.118000
     32 HN6         -2.4790     0.3440     2.0720 hn         1 23D       0.306800
     33 H8          -7.0650     0.5150     1.7650 h5         1 23D       0.047800
     34 HAZ1        -8.4450    -0.4280    -0.0440 h1         1 23D       0.041700
     35 HAZ2        -7.7010    -0.0060    -1.5870 h1         1 23D       0.041700
     36 HBA1        -8.7960    -2.3970    -1.2190 hc         1 23D       0.018033
     37 HBA2        -7.3110    -2.2230    -2.1640 hc         1 23D       0.018033
     38 HBA3        -7.2300    -2.7570    -0.4800 hc         1 23D       0.018033
     39 HN2         -3.6390    -2.4610    -3.5290 hn         1 23D       0.305800
     40 HAG         -0.9110    -1.6530    -2.6210 h1         1 23D       0.080700
     41 HAF1        -1.7560    -0.1760    -4.4510 hc         1 23D       0.039200
     42 HAF2        -1.9570    -1.6080    -5.4690 hc         1 23D       0.039200
     43 HAE1         0.1350    -1.0270    -6.1590 hc         1 23D       0.035200
     44 HAE2         0.5090    -0.1760    -4.6590 hc         1 23D       0.035200
     45 HAD1         1.2960    -2.0790    -3.6080 hc         1 23D       0.030700
     46 HAD2         1.7630    -2.4100    -5.2790 hc         1 23D       0.030700
     47 HAC1        -0.1830    -3.8370    -5.5860 hc         1 23D       0.036200
     48 HAC2         0.7400    -4.3790    -4.1830 hc         1 23D       0.036200
     49 HAA         -1.9730    -3.9580    -4.2390 hx         1 23D       0.083700
     50 HAB1        -0.2540    -3.7530    -1.8950 hn         1 23D       0.227467
     51 HAB2        -1.8170    -4.2280    -1.9210 hn         1 23D       0.227467
     52 HAB3        -0.6700    -5.1520    -2.6290 hn         1 23D       0.227467
@<TRIPOS>BOND
     1     1     2 ar  
     2     1     7 ar  
     3     1    28 1   
     4     2     3 1   
     5     2     4 ar  
     6     4     5 ar  
     7     4    29 1   
     8     5     6 ar  
     9     5    30 1   
    10     6     7 ar  
    11     6    31 1   
    12     7     8 1   
    13     8     9 1   
    14     8    32 1   
    15     9    10 ar  
    16     9    11 ar  
    17    10    19 ar  
    18    11    12 1   
    19    11    17 ar  
    20    12    13 2   
    21    13    14 1   
    22    13    33 1   
    23    14    15 1   
    24    14    17 1   
    25    15    16 1   
    26    15    34 1   
    27    15    35 1   
    28    16    36 1   
    29    16    37 1   
    30    16    38 1   
    31    17    18 ar  
    32    18    19 ar  
    33    19    20 1   
    34    20    21 1   
    35    20    39 1   
    36    21    22 1   
    37    21    26 1   
    38    21    40 1   
    39    22    23 1   
    40    22    41 1   
    41    22    42 1   
    42    23    24 1   
    43    23    43 1   
    44    23    44 1   
    45    24    25 1   
    46    24    45 1   
    47    24    46 1   
    48    25    26 1   
    49    25    47 1   
    50    25    48 1   
    51    26    27 1   
    52    26    49 1   
    53    27    50 1   
    54    27    51 1   
    55    27    52 1   
@<TRIPOS>SUBSTRUCTURE
     1 23D         1 TEMP              0 ****  ****    0 ROOT
