@<TRIPOS>MOLECULE
23E
   84    92     1     0     0
SMALL
bcc


@<TRIPOS>ATOM
      1 N1           1.4650     0.0000     0.0000 ns         1 23E      -0.015000
      2 C2           0.0000     0.0000     0.0000 c3         1 23E      -0.049000
      3 C3          -0.5160     0.0000     1.4160 c2         1 23E       0.192000
      4 N4           0.0130    -0.8420     2.3260 ns         1 23E       0.154000
      5 C5          -0.3440    -0.7310     3.6700 c2         1 23E      -0.204000
      6 O6          -1.4080     0.7570     1.7360 o          1 23E      -0.377000
      7 C7           0.5310    -1.1690     4.6590 c2         1 23E      -0.081500
      8 C8           0.1820    -1.0620     5.9850 c2         1 23E      -0.194000
      9 C9          -1.0540    -0.5090     6.3400 c3         1 23E       0.086000
     10 C10         -1.9310    -0.0680     5.3410 c2         1 23E      -0.194000
     11 C11         -1.5730    -0.1750     4.0160 c2         1 23E      -0.081500
     12 C12         -1.4320    -0.3910     7.7550 c2         1 23E      -0.078000
     13 C13         -2.6260     0.1410     8.0950 c2         1 23E      -0.153000
     14 C14         -2.9890     0.2550     9.4610 c3         1 23E       0.492000
     15 O15         -2.2260    -0.1280    10.3270 o          1 23E      -0.599500
     16 C16         -0.5280    -1.2340    -0.7530 c3         1 23E      -0.116000
     17 C17         -0.5280     1.2370    -0.7550 c3         1 23E      -0.116000
     18 C18         -1.3580    -0.7050    -1.9410 c3         1 23E      -0.104000
     19 C19         -0.7980     0.7200    -2.1900 c3         1 23E      -0.104000
     20 O20         -4.1810     0.7880     9.8000 o          1 23E      -0.599500
     21 C21          2.1390     1.0440     0.5200 c2         1 23E       0.263000
     22 C22          3.6100     0.9970     0.6200 ca         1 23E      -0.115000
     23 C23          4.2860    -0.1400     0.1650 ca         1 23E      -0.135000
     24 C24          5.6490    -0.2470     0.2290 ca         1 23E      -0.071000
     25 C25          4.2900     2.0940     1.1620 ca         1 23E      -0.014000
     26 N26          6.6240     2.8720     1.6900 na         1 23E       0.339000
     27 C27          5.6740     2.0010     1.2350 ca         1 23E      -0.178000
     28 C28          6.3500     0.8380     0.7780 ca         1 23E      -0.050000
     29 C29          7.7200     1.0510     0.9960 c2         1 23E      -0.127000
     30 C30          7.8620     2.2810     1.5650 c2         1 23E      -0.177000
     31 C31          8.8340     0.0920     0.6610 c3         1 23E      -0.021000
     32 C32          9.1400     2.8870     1.9940 ca         1 23E      -0.004000
     33 C33          8.6270    -1.2170     1.4260 c3         1 23E      -0.108000
     34 C34          9.7570    -2.1900     1.0850 c3         1 23E      -0.103000
     35 C35          9.7520    -2.4720    -0.4180 c3         1 23E      -0.103000
     36 C36          9.9590    -1.1630    -1.1820 c3         1 23E      -0.103000
     37 C37          8.8290    -0.1900    -0.8430 c3         1 23E      -0.108000
     38 O38          1.5350     2.0270     0.9050 o          1 23E      -0.383000
     39 C39         10.1220     2.0460     2.5310 ca         1 23E      -0.085000
     40 C40         11.3150     2.5670     2.9780 ca         1 23E      -0.107000
     41 C41         11.5450     3.9320     2.9020 ca         1 23E      -0.081000
     42 C42         10.5920     4.7680     2.3630 ca         1 23E      -0.126000
     43 C43          9.3850     4.2560     1.8840 ca         1 23E      -0.091000
     44 C44          6.4020     4.2280     2.2120 c3         1 23E      -0.116000
     45 N45          8.5150     5.1370     1.2660 ns         1 23E       0.138000
     46 C46          7.1890     5.1870     1.3580 c2         1 23E       0.186000
     47 O47          6.5920     6.0370     0.7330 o          1 23E      -0.384000
     48 HN1          1.9660    -0.7740    -0.3890 hn         1 23E       0.093000
     49 HN4          0.6860    -1.5260     2.0430 hn         1 23E       0.060000
     50 H7           1.4870    -1.5970     4.3840 ha         1 23E       0.119500
     51 H8           0.8640    -1.4030     6.7550 ha         1 23E       0.122000
     52 H10         -2.8880     0.3620     5.6110 ha         1 23E       0.122000
     53 H11         -2.2530     0.1600     3.2430 ha         1 23E       0.119500
     54 H12         -1.8010    -1.1580     7.0850 DU         1 23E       0.024000
     55 H13         -2.9840    -0.6810     8.7020 DU         1 23E       0.087000
     56 H16          0.3020    -1.8280    -1.1170 hc         1 23E       0.079500
     57 H16A        -1.1550    -1.8260    -0.0980 hc         1 23E       0.079500
     58 H17          0.2220     2.0180    -0.7700 hc         1 23E       0.079500
     59 H17A        -1.4460     1.5920    -0.3030 hc         1 23E       0.079500
     60 H18         -2.4070    -0.6570    -1.6770 hc         1 23E       0.053250
     61 H18A        -1.2070    -1.3270    -2.8140 hc         1 23E       0.053250
     62 H19         -1.5350     1.3390    -2.6860 hc         1 23E       0.053250
     63 H19A         0.1230     0.6750    -2.7590 hc         1 23E       0.053250
     64 H23          3.8340    -0.9710    -0.3620 ha         1 23E       0.098000
     65 H24          5.9670    -1.1890    -0.2020 ha         1 23E       0.115000
     66 H25          3.7680     2.9960     1.4590 ha         1 23E       0.139000
     67 H31          9.7860     0.5260     0.9420 hc         1 23E       0.081000
     68 H33          7.6770    -1.6540     1.1410 hc         1 23E       0.061500
     69 H33A         8.6330    -1.0160     2.4900 hc         1 23E       0.061500
     70 H34         10.7070    -1.7510     1.3660 hc         1 23E       0.050250
     71 H34A         9.6080    -3.1170     1.6260 hc         1 23E       0.050250
     72 H35          8.8010    -2.9060    -0.7000 hc         1 23E       0.050500
     73 H35A        10.5540    -3.1600    -0.6580 hc         1 23E       0.050500
     74 H36          9.9540    -1.3630    -2.2470 hc         1 23E       0.050250
     75 H36A        10.9090    -0.7260    -0.8970 hc         1 23E       0.050250
     76 H37          7.8790    -0.6290    -1.1240 hc         1 23E       0.061500
     77 H37A         8.9780     0.7370    -1.3830 hc         1 23E       0.061500
     78 H39          9.9440     0.9790     2.5920 ha         1 23E       0.134000
     79 H40         12.0670     1.9140     3.4030 ha         1 23E       0.107000
     80 H41         12.4840     4.3400     3.2540 ha         1 23E       0.104000
     81 H42         10.7830     5.8330     2.3080 ha         1 23E       0.111000
     82 H44          6.7660     4.2790     3.2310 h1         1 23E       0.102500
     83 H44A         5.3480     4.4680     2.1360 h1         1 23E       0.102500
     84 HN45         8.9370     5.8260     0.6750 hn         1 23E       0.089000
@<TRIPOS>BOND
     1     1     2 1   
     2     1    21 1   
     3     1    48 1   
     4     2     3 1   
     5     2    16 1   
     6     2    17 1   
     7     3     4 1   
     8     3     6 1   
     9     4     5 1   
    10     4    49 1   
    11     5     7 1   
    12     5    11 1   
    13     7     8 1   
    14     7    50 1   
    15     8     9 1   
    16     8    51 1   
    17     9    10 1   
    18     9    12 1   
    19     9    54 1   
    20    10    11 1   
    21    10    52 1   
    22    11    53 1   
    23    12    13 1   
    24    12    54 1   
    25    13    14 1   
    26    13    55 1   
    27    14    15 1   
    28    14    20 1   
    29    14    55 1   
    30    16    18 1   
    31    16    56 1   
    32    16    57 1   
    33    17    19 1   
    34    17    58 1   
    35    17    59 1   
    36    18    19 1   
    37    18    60 1   
    38    18    61 1   
    39    19    62 1   
    40    19    63 1   
    41    21    22 1   
    42    21    38 1   
    43    22    23 1   
    44    22    25 1   
    45    23    24 1   
    46    23    64 1   
    47    24    28 1   
    48    24    65 1   
    49    25    27 1   
    50    25    66 1   
    51    26    27 1   
    52    26    30 1   
    53    26    44 1   
    54    27    28 1   
    55    28    29 1   
    56    29    30 1   
    57    29    31 1   
    58    30    32 1   
    59    31    33 1   
    60    31    37 1   
    61    31    67 1   
    62    32    39 1   
    63    32    43 1   
    64    33    34 1   
    65    33    68 1   
    66    33    69 1   
    67    34    35 1   
    68    34    70 1   
    69    34    71 1   
    70    35    36 1   
    71    35    72 1   
    72    35    73 1   
    73    36    37 1   
    74    36    74 1   
    75    36    75 1   
    76    37    76 1   
    77    37    77 1   
    78    39    40 1   
    79    39    78 1   
    80    40    41 1   
    81    40    79 1   
    82    41    42 1   
    83    41    80 1   
    84    42    43 1   
    85    42    81 1   
    86    43    45 1   
    87    44    46 1   
    88    44    82 1   
    89    44    83 1   
    90    45    46 1   
    91    45    84 1   
    92    46    47 1   
@<TRIPOS>SUBSTRUCTURE
     1 23E         1 TEMP              0 ****  ****    0 ROOT
