@<TRIPOS>MOLECULE
molecule
   84    90     1     0     0
SMALL
bcc


@<TRIPOS>ATOM
      1 N1           1.4650     0.0000     0.0000 ns         1 23E      -0.583900
      2 C2           0.0000     0.0000     0.0000 c3         1 23E       0.052400
      3 C3          -0.5160     0.0000     1.4160 c          1 23E       0.660100
      4 N4           0.0130    -0.8420     2.3260 ns         1 23E      -0.459100
      5 C5          -0.3440    -0.7310     3.6700 ca         1 23E       0.011600
      6 O6          -1.4080     0.7570     1.7360 o          1 23E      -0.577100
      7 C7           0.5310    -1.1690     4.6590 ca         1 23E      -0.152000
      8 C8           0.1820    -1.0620     5.9850 ca         1 23E      -0.125000
      9 C9          -1.0540    -0.5090     6.3400 ca         1 23E      -0.026800
     10 C10         -1.9310    -0.0680     5.3410 ca         1 23E      -0.125000
     11 C11         -1.5730    -0.1750     4.0160 ca         1 23E      -0.152000
     12 C12         -1.4320    -0.3910     7.7550 ce         1 23E      -0.177200
     13 C13         -2.6260     0.1410     8.0950 cf         1 23E      -0.135200
     14 C14         -2.9890     0.2550     9.4610 c          1 23E       0.860800
     15 O15         -2.2260    -0.1280    10.3270 o          1 23E      -0.843800
     16 C16         -0.5280    -1.2340    -0.7530 c3         1 23E      -0.082400
     17 C17         -0.5280     1.2370    -0.7550 c3         1 23E      -0.082400
     18 C18         -1.3580    -0.7050    -1.9410 c3         1 23E      -0.086400
     19 C19         -0.7980     0.7200    -2.1900 c3         1 23E      -0.086400
     20 O20         -4.1810     0.7880     9.8000 o          1 23E      -0.843800
     21 C21          2.1390     1.0440     0.5200 c          1 23E       0.669700
     22 C22          3.6100     0.9970     0.6200 ca         1 23E      -0.124600
     23 C23          4.2860    -0.1400     0.1650 ca         1 23E      -0.153000
     24 C24          5.6490    -0.2470     0.2290 ca         1 23E      -0.099000
     25 C25          4.2900     2.0940     1.1620 ca         1 23E      -0.062000
     26 N26          6.6240     2.8720     1.6900 na         1 23E      -0.052400
     27 C27          5.6740     2.0010     1.2350 ca         1 23E      -0.043200
     28 C28          6.3500     0.8380     0.7780 ca         1 23E      -0.064800
     29 C29          7.7200     1.0510     0.9960 cd         1 23E      -0.123400
     30 C30          7.8620     2.2810     1.5650 cc         1 23E      -0.007300
     31 C31          8.8340     0.0920     0.6610 c3         1 23E      -0.003500
     32 C32          9.1400     2.8870     1.9940 ca         1 23E      -0.049800
     33 C33          8.6270    -1.2170     1.4260 c3         1 23E      -0.072900
     34 C34          9.7570    -2.1900     1.0850 c3         1 23E      -0.081400
     35 C35          9.7520    -2.4720    -0.4180 c3         1 23E      -0.079400
     36 C36          9.9590    -1.1630    -1.1820 c3         1 23E      -0.081400
     37 C37          8.8290    -0.1900    -0.8430 c3         1 23E      -0.072900
     38 O38          1.5350     2.0270     0.9050 o          1 23E      -0.587100
     39 C39         10.1220     2.0460     2.5310 ca         1 23E      -0.093000
     40 C40         11.3150     2.5670     2.9780 ca         1 23E      -0.144000
     41 C41         11.5450     3.9320     2.9020 ca         1 23E      -0.103000
     42 C42         10.5920     4.7680     2.3630 ca         1 23E      -0.161000
     43 C43          9.3850     4.2560     1.8840 ca         1 23E       0.062600
     44 C44          6.4020     4.2280     2.2120 c3         1 23E      -0.012700
     45 N45          8.5150     5.1370     1.2660 ns         1 23E      -0.460100
     46 C46          7.1890     5.1870     1.3580 c          1 23E       0.685500
     47 O47          6.5920     6.0370     0.7330 o          1 23E      -0.619500
     48 HN1          1.9660    -0.7740    -0.3890 hn         1 23E       0.312500
     49 HN4          0.6870    -1.5250     2.0430 hn         1 23E       0.311500
     50 H7           1.4870    -1.5970     4.3840 ha         1 23E       0.139000
     51 H8           0.8640    -1.4030     6.7550 ha         1 23E       0.139000
     52 H10         -2.8880     0.3620     5.6110 ha         1 23E       0.139000
     53 H11         -2.2500     0.1650     3.2430 ha         1 23E       0.139000
     54 H12         -0.7520    -0.7320     8.5260 ha         1 23E       0.150000
     55 H13         -3.3060     0.4820     7.3230 ha         1 23E       0.105000
     56 H16         -1.1550    -1.8260    -0.0980 hc         1 23E       0.068200
     57 H16A         0.3020    -1.8280    -1.1170 hc         1 23E       0.068200
     58 H17          0.2220     2.0190    -0.7700 hc         1 23E       0.068200
     59 H17A        -1.4460     1.5920    -0.3030 hc         1 23E       0.068200
     60 H18         -1.2070    -1.3270    -2.8140 hc         1 23E       0.045200
     61 H18A        -2.4070    -0.6570    -1.6770 hc         1 23E       0.045200
     62 H19          0.1220     0.6750    -2.7590 hc         1 23E       0.045200
     63 H19A        -1.5350     1.3390    -2.6860 hc         1 23E       0.045200
     64 H23          3.8330    -0.9710    -0.3620 ha         1 23E       0.118000
     65 H24          5.9690    -1.1880    -0.2010 ha         1 23E       0.139000
     66 H25          3.7680     2.9960     1.4580 ha         1 23E       0.167000
     67 H31          9.7860     0.5260     0.9410 hc         1 23E       0.058700
     68 H33          7.6770    -1.6540     1.1410 hc         1 23E       0.047450
     69 H33A         8.6330    -1.0160     2.4900 hc         1 23E       0.047450
     70 H34         10.7070    -1.7510     1.3660 hc         1 23E       0.038700
     71 H34A         9.6080    -3.1170     1.6260 hc         1 23E       0.038700
     72 H35          8.8010    -2.9070    -0.7000 hc         1 23E       0.038700
     73 H35A        10.5540    -3.1600    -0.6580 hc         1 23E       0.038700
     74 H36          9.9540    -1.3630    -2.2470 hc         1 23E       0.038700
     75 H36A        10.9090    -0.7260    -0.8970 hc         1 23E       0.038700
     76 H37          7.8790    -0.6290    -1.1240 hc         1 23E       0.047450
     77 H37A         8.9770     0.7370    -1.3840 hc         1 23E       0.047450
     78 H39          9.9440     0.9790     2.5920 ha         1 23E       0.155000
     79 H40         12.0670     1.9140     3.4030 ha         1 23E       0.136000
     80 H41         12.4840     4.3400     3.2540 ha         1 23E       0.134000
     81 H42         10.7830     5.8330     2.3080 ha         1 23E       0.137000
     82 H44          5.3480     4.4680     2.1360 h1         1 23E       0.095700
     83 H44A         6.7660     4.2790     3.2310 h1         1 23E       0.095700
     84 HN45         8.9370     5.8250     0.6740 hn         1 23E       0.333500
@<TRIPOS>BOND
     1     2     1 1
     2     1    21 1
     3     1    48 1
     4    17     2 1
     5     3     2 1
     6    16     2 1
     7     6     3 2
     8     3     4 1
     9     5     4 1
    10     4    49 1
    11     7     5 ar
    12    11     5 ar
    13     8     7 ar
    14     7    50 1
    15     9     8 ar
    16     8    51 1
    17    12     9 1
    18     9    10 ar
    19    10    11 ar
    20    10    52 1
    21    11    53 1
    22    12    13 2
    23    12    54 1
    24    14    13 1
    25    13    55 1
    26    15    14 1
    27    14    20 1
    28    18    16 1
    29    16    56 1
    30    16    57 1
    31    19    17 1
    32    17    58 1
    33    17    59 1
    34    19    18 1
    35    18    60 1
    36    18    61 1
    37    19    62 1
    38    19    63 1
    39    38    21 2
    40    21    22 1
    41    22    25 ar
    42    22    23 ar
    43    23    24 ar
    44    23    64 1
    45    24    28 ar
    46    24    65 1
    47    25    27 ar
    48    25    66 1
    49    44    26 1
    50    27    26 1
    51    26    30 1
    52    27    28 ar
    53    28    29 1
    54    30    29 2
    55    29    31 1
    56    30    32 1
    57    31    37 1
    58    31    33 1
    59    31    67 1
    60    43    32 ar
    61    32    39 ar
    62    33    34 1
    63    33    68 1
    64    33    69 1
    65    35    34 1
    66    34    70 1
    67    34    71 1
    68    36    35 1
    69    35    72 1
    70    35    73 1
    71    37    36 1
    72    36    74 1
    73    36    75 1
    74    37    76 1
    75    37    77 1
    76    39    40 ar
    77    39    78 1
    78    41    40 ar
    79    40    79 1
    80    42    41 ar
    81    41    80 1
    82    43    42 ar
    83    42    81 1
    84    45    43 1
    85    44    46 1
    86    44    82 1
    87    44    83 1
    88    46    45 1
    89    45    84 1
    90    47    46 2
@<TRIPOS>SUBSTRUCTURE
     1 23E         1 TEMP              0 ****  ****    0 ROOT
