@<TRIPOS>MOLECULE
23H
   71    74     1     0     0
SMALL
bcc


@<TRIPOS>ATOM
      1 O1           0.0000     0.0000     0.0000 o          1 23H      -0.607100
      2 C1           1.2130     0.0000     0.0000 c          1 23H       0.546100
      3 N1           1.8870     0.0000     1.1660 n          1 23H       0.080000
      4 C2           3.3460    -0.1370     1.1710 c3         1 23H       0.033000
      5 C3           3.9630     1.0780     1.8150 c          1 23H       0.550100
      6 O2           3.2890     1.7990     2.5180 o          1 23H      -0.590100
      7 N2           5.2650     1.3610     1.6080 ns         1 23H      -0.231900
      8 C24          5.8880     2.4880     2.3070 c3         1 23H       0.016400
      9 C25          5.7920     2.2690     3.8180 c3         1 23H      -0.030100
     10 C27          7.3590     2.5910     1.8990 c3         1 23H      -0.035400
     11 C28          8.0090     3.7680     2.6270 c3         1 23H      -0.004100
     12 C26          5.1640     3.7830     1.9320 c3         1 23H      -0.030100
     13 C19          3.7330    -1.3690     1.9460 cc         1 23H      -0.362600
     14 C20          2.8820    -2.2170     2.5620 cd         1 23H      -0.146000
     15 C21          3.6560    -3.2270     3.1660 cd         1 23H      -0.165000
     16 C22          4.9500    -2.9590     2.8970 cc         1 23H      -0.310300
     17 N7           5.0030    -1.8240     2.1450 na         1 23H       0.449900
     18 C23          6.2240    -1.1930     1.6350 c3         1 23H      -0.050400
     19 C11          1.1940     0.1310     2.3760 ca         1 23H      -0.095400
     20 C12         -0.1680     0.4060     2.3700 ca         1 23H      -0.121500
     21 C13         -0.8520     0.5340     3.5620 ca         1 23H      -0.102000
     22 C16          1.8660    -0.0200     3.5830 ca         1 23H      -0.121500
     23 C15          1.1820     0.1080     4.7740 ca         1 23H      -0.102000
     24 C14         -0.1780     0.3880     4.7680 ca         1 23H      -0.102400
     25 N6          -0.8720     0.5190     5.9780 ns         1 23H      -0.038100
     26 C17         -0.2570     1.0520     7.0530 c          1 23H       0.555100
     27 C18         -0.9620     1.0830     8.3850 c3         1 23H      -0.070100
     28 O3           0.8620     1.5060     6.9480 o          1 23H      -0.630100
     29 C4           1.9660    -0.0050    -1.3060 c3         1 23H      -0.077700
     30 N3           1.0130    -0.0110    -2.4190 na         1 23H       0.478900
     31 N4           0.4690     1.1100    -3.0620 nc         1 23H      -0.313400
     32 N5          -0.3300     0.7230    -3.9940 nd         1 23H      -0.127400
     33 C10         -0.3760    -0.6240    -4.0410 ca         1 23H      -0.007600
     34 C5           0.4830    -1.1150    -3.0430 ca         1 23H      -0.209200
     35 C9          -1.0730    -1.5290    -4.8510 ca         1 23H      -0.008000
     36 C8          -0.9170    -2.8710    -4.6620 ca         1 23H      -0.134000
     37 C7          -0.0730    -3.3560    -3.6720 ca         1 23H      -0.056000
     38 C6           0.6300    -2.4870    -2.8670 ca         1 23H      -0.107000
     39 H1           3.7030    -0.2250     0.1510 h1         1 23H       0.041700
     40 H2           5.7850     0.8480     0.9240 hn         1 23H       0.186500
     41 H3           4.7510     2.1900     4.1060 hc         1 23H       0.024200
     42 H4           6.2470     3.1060     4.3340 hc         1 23H       0.024200
     43 H5           6.3110     1.3560     4.0850 hc         1 23H       0.024200
     44 H6           7.8720     1.6740     2.1630 hc         1 23H       0.013200
     45 H7           7.4260     2.7460     0.8290 hc         1 23H       0.013200
     46 H8           8.6250     3.3960     3.4370 hc         1 23H       0.012367
     47 H9           8.6260     4.3260     1.9330 hc         1 23H       0.012367
     48 H10          7.2390     4.4160     3.0270 hc         1 23H       0.012367
     49 H11          4.5070     3.5980     1.0910 hc         1 23H       0.024200
     50 H12          4.5810     4.1280     2.7770 hc         1 23H       0.024200
     51 H13          5.8920     4.5380     1.6620 hc         1 23H       0.024200
     52 H14          1.8020    -2.1350     2.5860 ha         1 23H       0.154000
     53 H15          3.2810    -4.0640     3.7420 ha         1 23H       0.131000
     54 H16          5.8000    -3.5480     3.2190 h4         1 23H       0.147000
     55 H17          6.0230    -0.7420     0.6710 h1         1 23H       0.029700
     56 H18          7.0000    -1.9420     1.5280 h1         1 23H       0.029700
     57 H19          6.5530    -0.4300     2.3300 h1         1 23H       0.029700
     58 H20         -0.6940     0.5200     1.4290 ha         1 23H       0.161500
     59 H21         -1.9130     0.7510     3.5580 ha         1 23H       0.119500
     60 H22          2.9270    -0.2390     3.5880 ha         1 23H       0.161500
     61 H23          1.7060    -0.0080     5.7150 ha         1 23H       0.119500
     62 H24         -1.8500     0.3080     6.0170 hn         1 23H       0.164500
     63 H25         -1.3800     0.1060     8.5950 hc         1 23H       0.022367
     64 H26         -1.7570     1.8180     8.3550 hc         1 23H       0.022367
     65 H27         -0.2540     1.3480     9.1610 hc         1 23H       0.022367
     66 H28          2.5890     0.8790    -1.3680 h1         1 23H       0.049200
     67 H29          2.5900    -0.8900    -1.3600 h1         1 23H       0.049200
     68 H30         -1.7350    -1.1640    -5.6260 ha         1 23H       0.112000
     69 H31         -1.4640    -3.5660    -5.2880 ha         1 23H       0.108000
     70 H32          0.0390    -4.4250    -3.5350 ha         1 23H       0.104000
     71 H33          1.2880    -2.8690    -2.0960 ha         1 23H       0.104000
@<TRIPOS>BOND
     1     1     2 2   
     2     2     3 1   
     3     2    29 1   
     4     3     4 1   
     5     3    19 1   
     6     4     5 1   
     7     4    13 1   
     8     4    39 1   
     9     5     6 2   
    10     5     7 1   
    11     7     8 1   
    12     7    40 1   
    13     8     9 1   
    14     8    10 1   
    15     8    12 1   
    16     9    41 1   
    17     9    42 1   
    18     9    43 1   
    19    10    11 1   
    20    10    44 1   
    21    10    45 1   
    22    11    46 1   
    23    11    47 1   
    24    11    48 1   
    25    12    49 1   
    26    12    50 1   
    27    12    51 1   
    28    13    14 2   
    29    13    17 1   
    30    14    15 1   
    31    14    52 1   
    32    15    16 2   
    33    15    53 1   
    34    16    17 1   
    35    16    54 1   
    36    17    18 1   
    37    18    55 1   
    38    18    56 1   
    39    18    57 1   
    40    19    20 ar  
    41    19    22 ar  
    42    20    21 ar  
    43    20    58 1   
    44    21    24 ar  
    45    21    59 1   
    46    22    23 ar  
    47    22    60 1   
    48    23    24 ar  
    49    23    61 1   
    50    24    25 1   
    51    25    26 1   
    52    25    62 1   
    53    26    27 1   
    54    26    28 2   
    55    27    63 1   
    56    27    64 1   
    57    27    65 1   
    58    29    30 1   
    59    29    66 1   
    60    29    67 1   
    61    30    31 1   
    62    30    34 1   
    63    31    32 2   
    64    32    33 1   
    65    33    34 ar  
    66    33    35 ar  
    67    34    38 ar  
    68    35    36 ar  
    69    35    68 1   
    70    36    37 ar  
    71    36    69 1   
    72    37    38 ar  
    73    37    70 1   
    74    38    71 1   
@<TRIPOS>SUBSTRUCTURE
     1 23H         1 TEMP              0 ****  ****    0 ROOT
