@<TRIPOS>MOLECULE
molecule
   17    17     1     0     0
SMALL
bcc


@<TRIPOS>ATOM
      1 C01          0.0000     0.0000     0.0000 ca         1 23J      -0.158000
      2 C02          1.3880     0.0000     0.0000 ca         1 23J      -0.134000
      3 C03          2.0890     0.0000     1.1880 ca         1 23J      -0.152000
      4 C04          1.4070     0.0000     2.4000 ca         1 23J       0.058900
      5 C05         -0.0030    -0.0000     2.4040 ca         1 23J      -0.116600
      6 C06         -0.6970     0.0050     1.1870 ca         1 23J      -0.080000
      7 C07         -0.7390    -0.0010     3.6740 c          1 23J       0.455700
      8 O08         -0.1380    -0.1170     4.7240 o          1 23J      -0.495100
      9 C09         -2.2250     0.1380     3.6760 c          1 23J       0.819600
     10 O10         -2.8890     0.2410     4.8410 o          1 23J      -0.811800
     11 O11         -2.8330     0.1580     2.6270 o          1 23J      -0.811800
     12 S12          2.2970    -0.0010     3.9190 sh         1 23J      -0.289700
     13 H1          -0.5380    -0.0040    -0.9400 ha         1 23J       0.117000
     14 H2           1.9250    -0.0000    -0.9410 ha         1 23J       0.108000
     15 H3           3.1720    -0.0040     1.1770 ha         1 23J       0.116000
     16 H4          -1.7790    -0.0520     1.1800 ha         1 23J       0.219000
     17 H6           3.1360     1.0280     3.9410 hs         1 23J       0.153800
@<TRIPOS>BOND
     1    11     9 1   
     2    10     9 1   
     3     9     7 1   
     4     7     8 2   
     5     7     5 1   
     6     6     5 ar  
     7     6     1 ar  
     8     5     4 ar  
     9     1     2 ar  
    10     4     3 ar  
    11     4    12 1   
    12     2     3 ar  
    13     1    13 1   
    14     2    14 1   
    15     3    15 1   
    16     6    16 1   
    17    12    17 1   
@<TRIPOS>SUBSTRUCTURE
     1 23J         1 TEMP              0 ****  ****    0 ROOT
