@<TRIPOS>MOLECULE
23J
   17    17     1     0     0
SMALL
bcc


@<TRIPOS>ATOM
      1 C01         0.0620   -0.0980    0.0210 ca        1 23J     -0.158000
      2 C02         1.4180    0.2240    0.0780 ca        1 23J     -0.127000
      3 C03         2.0520    0.3360    1.3110 ca        1 23J     -0.174000
      4 C04         1.3490    0.1200    2.5050 ca        1 23J      0.038900
      5 C05        -0.0160   -0.2040    2.4480 ca        1 23J     -0.117600
      6 C06        -0.6490   -0.3020    1.2000 ca        1 23J     -0.083000
      7 C07        -0.8730   -0.4280    3.6530 c         1 23J      0.462700
      8 O08        -0.5620   -1.2510    4.5190 o         1 23J     -0.558100
      9 C09        -2.1950    0.3720    3.6690 c         1 23J      0.867600
     10 O10        -2.2570    1.3840    4.4070 o         1 23J     -0.805300
     11 O11        -3.1090   -0.0620    2.9160 o         1 23J     -0.805300
     12 S12         2.1380    0.2470    4.0070 sh        1 23J     -0.213700
     13 H1         -0.4460   -0.1800   -0.9490 ha        1 23J      0.119000
     14 H2          1.9860    0.3930   -0.8470 ha        1 23J      0.110000
     15 H3          3.1200    0.5970    1.3460 ha        1 23J      0.110000
     16 H4         -1.7360   -0.5190    1.1830 ha        1 23J      0.187000
     17 H6          3.2760    0.7710    3.5970 hs        1 23J      0.145800
@<TRIPOS>BOND
     1    1    2 ar  
     2    1    6 ar  
     3    1   13 1   
     4    2    3 ar  
     5    2   14 1   
     6    3    4 ar  
     7    3   15 1   
     8    4    5 ar  
     9    4   12 1   
    10    5    6 ar  
    11    5    7 1   
    12    6   16 1   
    13    7    8 2   
    14    7    9 1   
    15    9   10 1   
    16    9   11 1   
    17   12   17 1   
@<TRIPOS>SUBSTRUCTURE
     1 23J         1 TEMP              0 ****  ****    0 ROOT
