@<TRIPOS>MOLECULE
molecule
   74    76     1     0     0
SMALL
bcc


@<TRIPOS>ATOM
      1 C1           0.0000     0.0000     0.0000 ca         1 23K      -0.192000
      2 C2           1.3850     0.0000     0.0000 ca         1 23K       0.185900
      3 C3           2.0750     0.0000     1.1920 ca         1 23K      -0.206000
      4 C4           1.4090     0.0280     2.4200 ca         1 23K       0.044700
      5 C5           0.0290     0.0840     2.3970 ca         1 23K      -0.322500
      6 C6          -0.6700     0.0450     1.2060 ca         1 23K      -0.005000
      7 F7           2.0610    -0.0020    -1.1700 f          1 23K      -0.134900
      8 C8           2.3080    -0.1010     3.6310 c3         1 23K      -0.052100
      9 S9          -0.8630     0.2330     3.9100 sy         1 23K       1.430200
     10 N10         -0.1900    -0.8740     4.9480 n3         1 23K      -0.802500
     11 O11         -0.5580     1.5180     4.4340 o          1 23K      -0.633300
     12 O12         -2.1850    -0.2110     3.6450 o          1 23K      -0.633300
     13 C13         -0.7360    -2.2270     5.0810 c3         1 23K       0.243800
     14 C14          0.9470    -0.4490     5.7130 c3         1 23K       0.230800
     15 C15          1.7600     0.5720     4.8840 c3         1 23K      -0.154700
     16 C16          2.9230     1.1020     5.7260 c3         1 23K      -0.055700
     17 C17          0.0350    -3.1790     4.1640 c3         1 23K       0.104100
     18 C18         -0.6130    -4.5640     4.2070 c3         1 23K       0.112700
     19 O19          1.3900    -3.2740     4.6070 oh         1 23K      -0.602800
     20 N20          0.0500    -5.4440     3.2400 ns         1 23K      -0.605900
     21 C21         -0.4710    -5.1520     5.6120 c3         1 23K      -0.046100
     22 C22         -1.2140    -6.4600     5.6880 ca         1 23K      -0.065300
     23 C23         -0.5660    -7.6420     5.3800 ca         1 23K      -0.114500
     24 C24         -1.2500    -8.8420     5.4490 ca         1 23K      -0.120500
     25 C25         -2.5790    -8.8600     5.8270 ca         1 23K      -0.129000
     26 C26         -3.2260    -7.6780     6.1350 ca         1 23K      -0.120500
     27 C27         -2.5420    -6.4790     6.0720 ca         1 23K      -0.114500
     28 C28         -0.6110    -6.5010     2.7260 c          1 23K       0.784100
     29 N29         -0.0010    -7.3090     1.8380 ns         1 23K      -0.598900
     30 O30         -1.7570    -6.7230     3.0650 o          1 23K      -0.644100
     31 C31         -0.7190    -8.4570     1.2790 c3         1 23K       0.141400
     32 C32          0.1930    -9.2050     0.3040 c3         1 23K      -0.102100
     33 C33         -1.1350    -9.3990     2.4110 c3         1 23K      -0.102100
     34 C34          3.6730     2.1780     4.9400 c3         1 23K      -0.091100
     35 C35          2.3790     1.7030     7.0240 c3         1 23K      -0.091100
     36 C36         -1.9650    -7.9680     0.5390 c3         1 23K      -0.102100
     37 H1          -0.5490     0.0000    -0.9340 ha         1 23K       0.154000
     38 H2           3.1580    -0.0000     1.1760 ha         1 23K       0.147000
     39 H3          -1.7530     0.0450     1.2180 ha         1 23K       0.162000
     40 H4           3.2570     0.3640     3.3920 hc         1 23K       0.070700
     41 H5           2.4280    -1.1560     3.8450 hc         1 23K       0.070700
     42 H6          -1.7820    -2.2230     4.8000 h1         1 23K       0.080700
     43 H7          -0.6380    -2.5570     6.1080 h1         1 23K       0.080700
     44 H8           1.5690    -1.3060     5.9420 h1         1 23K       0.060200
     45 H9           0.6110     0.0180     6.6310 h1         1 23K       0.060200
     46 H10          1.1150     1.3930     4.5960 hc         1 23K       0.131700
     47 H11          3.5990     0.2890     5.9610 hc         1 23K       0.045700
     48 H12          0.0120    -2.8000     3.1490 h1         1 23K       0.044700
     49 H13         -1.6640    -4.4790     3.9560 h1         1 23K       0.093700
     50 H14          1.9430    -3.5030     3.8790 ho         1 23K       0.398000
     51 H15          0.9810    -5.2410     2.9370 hn         1 23K       0.296500
     52 H16          0.5770    -5.3190     5.8290 hc         1 23K       0.056700
     53 H17         -0.8840    -4.4600     6.3360 hc         1 23K       0.056700
     54 H18          0.4750    -7.6280     5.0830 ha         1 23K       0.121500
     55 H19         -0.7420    -9.7680     5.2070 ha         1 23K       0.123500
     56 H20         -3.1140    -9.8010     5.8790 ha         1 23K       0.123000
     57 H21         -4.2680    -7.6930     6.4330 ha         1 23K       0.123500
     58 H22         -3.0500    -5.5530     6.3130 ha         1 23K       0.121500
     59 H23          0.9290    -7.1030     1.5300 hn         1 23K       0.301500
     60 H24          1.0820    -9.5390     0.8250 hc         1 23K       0.045367
     61 H25          0.4770    -8.5420    -0.5050 hc         1 23K       0.045367
     62 H26         -0.3330   -10.0610    -0.0990 hc         1 23K       0.045367
     63 H27         -0.3370    -9.4610     3.1410 hc         1 23K       0.045367
     64 H28         -1.3320   -10.3840     2.0070 hc         1 23K       0.045367
     65 H29         -2.0310    -9.0180     2.8870 hc         1 23K       0.045367
     66 H30          2.9660     2.7640     4.3640 hc         1 23K       0.038533
     67 H31          4.2020     2.8260     5.6280 hc         1 23K       0.038533
     68 H32          4.3810     1.7080     4.2690 hc         1 23K       0.038533
     69 H33          2.0950     0.9060     7.7000 hc         1 23K       0.038533
     70 H34          1.5130     2.3150     6.8030 hc         1 23K       0.038533
     71 H35          3.1450     2.3140     7.4870 hc         1 23K       0.038533
     72 H36         -2.2800    -8.7210    -0.1740 hc         1 23K       0.045367
     73 H37         -1.7360    -7.0480     0.0150 hc         1 23K       0.045367
     74 H38         -2.7620    -7.7900     1.2510 hc         1 23K       0.045367
@<TRIPOS>BOND
     1     1     6 ar
     2     1     2 ar
     3    26    27 ar
     4    26    25 ar
     5     7     2 1
     6    27    22 ar
     7     6     5 ar
     8    25    24 ar
     9    22    21 1
    10    22    23 ar
    11     2     3 ar
    12    24    23 ar
    13    21    18 1
    14    11     9 2
    15     5     9 1
    16     5     4 ar
    17    19    17 1
    18     3     4 ar
    19    13    17 1
    20    13    10 1
    21    18    17 1
    22    18    20 1
    23     9    10 1
    24     9    12 2
    25     4     8 1
    26    20    28 1
    27    10    14 1
    28     8    15 1
    29    28    29 1
    30    28    30 2
    31    14    15 1
    32    15    16 1
    33    29    31 1
    34    16    34 1
    35    16    35 1
    36    31    36 1
    37    31    32 1
    38    31    33 1
    39     1    37 1
    40     3    38 1
    41     6    39 1
    42     8    40 1
    43     8    41 1
    44    13    42 1
    45    13    43 1
    46    14    44 1
    47    14    45 1
    48    15    46 1
    49    16    47 1
    50    17    48 1
    51    18    49 1
    52    19    50 1
    53    20    51 1
    54    21    52 1
    55    21    53 1
    56    23    54 1
    57    24    55 1
    58    25    56 1
    59    26    57 1
    60    27    58 1
    61    29    59 1
    62    32    60 1
    63    32    61 1
    64    32    62 1
    65    33    63 1
    66    33    64 1
    67    33    65 1
    68    34    66 1
    69    34    67 1
    70    34    68 1
    71    35    69 1
    72    35    70 1
    73    35    71 1
    74    36    72 1
    75    36    73 1
    76    36    74 1
@<TRIPOS>SUBSTRUCTURE
     1 23K         1 TEMP              0 ****  ****    0 ROOT
