@<TRIPOS>MOLECULE
23L
   72    75     1     0     0
SMALL
bcc


@<TRIPOS>ATOM
      1 C1           0.0000     0.0000     0.0000 ca         1 23L      -0.168000
      2 C2           1.3850     0.0000     0.0000 ca         1 23L       0.158900
      3 C3           2.0770     0.0000     1.1900 ca         1 23L      -0.185000
      4 C4           1.4110     0.0280     2.4190 ca         1 23L       0.047700
      5 C5           0.0320     0.0850     2.3980 ca         1 23L      -0.166500
      6 C6          -0.6680     0.0450     1.2070 ca         1 23L       0.033000
      7 F7           2.0600    -0.0020    -1.1710 f          1 23L      -0.124900
      8 C8           2.3110    -0.1010     3.6290 c3         1 23L       0.000900
      9 S9          -0.8580     0.2340     3.9110 sy         1 23L       1.055200
     10 N10         -0.1840    -0.8740     4.9500 n3         1 23L      -0.505500
     11 O11         -0.5530     1.5180     4.4350 o          1 23L      -0.582300
     12 O12         -2.1820    -0.2110     3.6470 o          1 23L      -0.582300
     13 C13         -0.7310    -2.2260     5.0810 c3         1 23L       0.226800
     14 C14          0.9530    -0.4490     5.7120 c3         1 23L       0.225800
     15 C15          1.7650     0.5720     4.8820 c3         1 23L      -0.176700
     16 C16          2.9280     1.1020     5.7240 c3         1 23L      -0.026700
     17 C17          0.0390    -3.1790     4.1640 c3         1 23L       0.145100
     18 C18         -0.6100    -4.5640     4.2070 c3         1 23L       0.001700
     19 O19          1.3950    -3.2740     4.6060 oh         1 23L      -0.581800
     20 N20          0.0520    -5.4440     3.2410 ns         1 23L      -0.171900
     21 C21         -0.4650    -5.1510     5.6140 c3         1 23L       0.011900
     22 C22         -1.2100    -6.4590     5.6900 ca         1 23L      -0.080300
     23 C23         -0.5620    -7.6410     5.3810 ca         1 23L      -0.092500
     24 C24         -1.2450    -8.8410     5.4510 ca         1 23L      -0.094000
     25 C25         -2.5740    -8.8590     5.8300 ca         1 23L      -0.097000
     26 C26         -3.2200    -7.6780     6.1390 ca         1 23L      -0.094000
     27 C27         -2.5370    -6.4780     6.0750 ca         1 23L      -0.092500
     28 C28         -0.6090    -6.5000     2.7270 c          1 23L       0.677100
     29 O29         -0.0010    -7.3080     1.8400 os         1 23L      -0.412900
     30 O30         -1.7550    -6.7230     3.0670 o          1 23L      -0.640000
     31 C31         -0.7730    -8.4260     1.3290 c3         1 23L       0.168100
     32 C32         -0.5570    -9.6860     2.1950 c3         1 23L       0.177400
     33 O33         -0.4610   -10.8080     1.3110 os         1 23L      -0.408600
     34 C34         -0.6390   -10.3790    -0.0490 c3         1 23L       0.218400
     35 C35         -0.2370    -8.8830    -0.0560 c3         1 23L      -0.071400
     36 C36          3.6780     2.1780     4.9360 c3         1 23L      -0.002600
     37 C37          2.3870     1.7030     7.0220 c3         1 23L      -0.002600
     38 H1          -0.5500     0.0000    -0.9330 ha         1 23L       0.128000
     39 H2           3.1600    -0.0000     1.1740 ha         1 23L       0.126000
     40 H3          -1.7510     0.0460     1.2200 ha         1 23L       0.131000
     41 H4           3.2600     0.3630     3.3890 hc         1 23L       0.042700
     42 H5           2.4310    -1.1560     3.8430 hc         1 23L       0.042700
     43 H6          -0.6330    -2.5570     6.1090 h1         1 23L       0.046700
     44 H7          -1.7770    -2.2220     4.8010 h1         1 23L       0.046700
     45 H8           0.6180     0.0180     6.6310 h1         1 23L       0.028700
     46 H9           1.5750    -1.3060     5.9410 h1         1 23L       0.028700
     47 H10          1.1200     1.3930     4.5950 hc         1 23L       0.138700
     48 H11          3.6050     0.2880     5.9580 hc         1 23L       0.019700
     49 H12          0.0150    -2.8000     3.1500 h1         1 23L       0.012700
     50 H13         -1.6610    -4.4790     3.9570 h1         1 23L       0.072700
     51 H14          1.9400    -3.5490     3.8880 ho         1 23L       0.389000
     52 H15          0.9840    -5.2410     2.9370 hn         1 23L       0.166500
     53 H16         -0.8770    -4.4590     6.3380 hc         1 23L       0.032200
     54 H17          0.5830    -5.3190     5.8290 hc         1 23L       0.032200
     55 H18          0.4800    -7.6270     5.0840 ha         1 23L       0.099500
     56 H19         -0.7380    -9.7680     5.2080 ha         1 23L       0.100000
     57 H20         -3.1090    -9.8000     5.8830 ha         1 23L       0.100000
     58 H21         -4.2620    -7.6930     6.4390 ha         1 23L       0.100000
     59 H22         -3.0440    -5.5520     6.3170 ha         1 23L       0.099500
     60 H23         -1.8260    -8.1800     1.2680 h1         1 23L       0.053700
     61 H24          0.3610    -9.5870     2.7620 h1         1 23L       0.021200
     62 H25         -1.3980    -9.8180     2.8650 h1         1 23L       0.021200
     63 H26          0.0080   -10.9440    -0.7080 h1         1 23L       0.008700
     64 H27         -1.6760   -10.4890    -0.3440 h1         1 23L       0.008700
     65 H28          0.8390    -8.7710    -0.1110 hc         1 23L       0.032200
     66 H29         -0.7340    -8.3510    -0.8580 hc         1 23L       0.032200
     67 H30          4.2090     2.8240     5.6240 hc         1 23L       0.007867
     68 H31          2.9710     2.7640     4.3620 hc         1 23L       0.007867
     69 H32          4.3860     1.7060     4.2650 hc         1 23L       0.007867
     70 H33          3.1520     2.3160     7.4820 hc         1 23L       0.007867
     71 H34          1.5190     2.3130     6.8030 hc         1 23L       0.007867
     72 H35          2.1060     0.9060     7.7000 hc         1 23L       0.007867
@<TRIPOS>BOND
     1     1     2 ar  
     2     1     6 ar  
     3     1    38 1   
     4     2     3 ar  
     5     2     7 1   
     6     3     4 ar  
     7     3    39 1   
     8     4     5 ar  
     9     4     8 1   
    10     5     6 ar  
    11     5     9 1   
    12     6    40 1   
    13     8    15 1   
    14     8    41 1   
    15     8    42 1   
    16     9    10 1   
    17     9    11 2   
    18     9    12 2   
    19    10    13 1   
    20    10    14 1   
    21    13    17 1   
    22    13    43 1   
    23    13    44 1   
    24    14    15 1   
    25    14    45 1   
    26    14    46 1   
    27    15    16 1   
    28    15    47 1   
    29    16    36 1   
    30    16    37 1   
    31    16    48 1   
    32    17    18 1   
    33    17    19 1   
    34    17    49 1   
    35    18    20 1   
    36    18    21 1   
    37    18    50 1   
    38    19    51 1   
    39    20    28 1   
    40    20    52 1   
    41    21    22 1   
    42    21    53 1   
    43    21    54 1   
    44    22    23 ar  
    45    22    27 ar  
    46    23    24 ar  
    47    23    55 1   
    48    24    25 ar  
    49    24    56 1   
    50    25    26 ar  
    51    25    57 1   
    52    26    27 ar  
    53    26    58 1   
    54    27    59 1   
    55    28    29 1   
    56    28    30 2   
    57    29    31 1   
    58    31    32 1   
    59    31    35 1   
    60    31    60 1   
    61    32    33 1   
    62    32    61 1   
    63    32    62 1   
    64    33    34 1   
    65    34    35 1   
    66    34    63 1   
    67    34    64 1   
    68    35    65 1   
    69    35    66 1   
    70    36    67 1   
    71    36    68 1   
    72    36    69 1   
    73    37    70 1   
    74    37    71 1   
    75    37    72 1   
@<TRIPOS>SUBSTRUCTURE
     1 23L         1 TEMP              0 ****  ****    0 ROOT
