@<TRIPOS>MOLECULE
23M
   35    37     1     0     0
SMALL
bcc


@<TRIPOS>ATOM
      1 C1           0.0000     0.0000     0.0000 ca         1 23M      -0.109800
      2 C2           1.4100     0.0000     0.0000 ca         1 23M      -0.207200
      3 N3           1.8210     0.0000     1.3130 na         1 23M       0.404600
      4 C4           0.7260     0.0010     2.1450 cc         1 23M      -0.141300
      5 C5          -0.4100    -0.0050     1.4050 cd         1 23M      -0.135200
      6 C6           0.7790     0.0020     3.6240 ca         1 23M      -0.059800
      7 C7          -0.1240     0.7740     4.3560 ca         1 23M      -0.081000
      8 C8          -0.0700     0.7690     5.7350 ca         1 23M      -0.086000
      9 C9           0.8770     0.0020     6.3910 ca         1 23M      -0.076000
     10 C10          1.7750    -0.7650     5.6700 ca         1 23M      -0.075300
     11 C11          1.7340    -0.7650     4.2910 ca         1 23M      -0.098000
     12 C12          2.8020    -1.5980     6.3920 c3         1 23M       0.061200
     13 C13          2.0970    -0.0010    -1.2120 ca         1 23M      -0.046000
     14 C14          1.4120    -0.0020    -2.3910 ca         1 23M      -0.108000
     15 C15          0.0120    -0.0010    -2.4050 ca         1 23M      -0.278900
     16 C16         -0.6970     0.0000    -1.2080 ca         1 23M       0.039000
     17 C17         -0.7150     0.0000    -3.6940 ce         1 23M       0.230800
     18 N18         -2.0190     0.0010    -3.7060 n2         1 23M      -0.524100
     19 N19         -0.0140    -0.0010    -4.8800 nz         1 23M       0.191400
     20 HN3          2.7740     0.0030     1.6170 hn         1 23M       0.130700
     21 H5          -1.4260    -0.0050     1.7800 ha         1 23M       0.147000
     22 H7          -0.8660     1.3740     3.8440 ha         1 23M       0.110000
     23 H8          -0.7700     1.3680     6.3050 ha         1 23M       0.113000
     24 H9           0.9140     0.0010     7.4740 ha         1 23M       0.116000
     25 H11          2.4370    -1.3660     3.7270 ha         1 23M       0.102000
     26 H121         2.4750    -1.7730     7.4090 hc         1 23M       0.013367
     27 H122         2.9210    -2.5460     5.8820 hc         1 23M       0.013367
     28 H123         3.7500    -1.0720     6.4020 hc         1 23M       0.013367
     29 H13          3.1800    -0.0020    -1.2180 ha         1 23M       0.116000
     30 H14          1.9570    -0.0030    -3.3270 ha         1 23M       0.080000
     31 H16         -1.7800     0.0010    -1.2140 ha         1 23M       0.106000
     32 HN18        -2.5290     0.0010    -2.8450 hn         1 23M       0.381400
     33 H191         0.5520    -0.8240    -4.9330 hn         1 23M       0.219800
     34 H192        -0.6570     0.0120    -5.6470 hn         1 23M       0.219800
     35 H193         0.5710     0.8100    -4.9220 hn         1 23M       0.219800
@<TRIPOS>BOND
     1     1     2 ar  
     2     1     5 1   
     3     1    16 ar  
     4     2     3 1   
     5     2    13 ar  
     6     3     4 1   
     7     3    20 1   
     8     4     5 2   
     9     4     6 1   
    10     5    21 1   
    11     6     7 ar  
    12     6    11 ar  
    13     7     8 ar  
    14     7    22 1   
    15     8     9 ar  
    16     8    23 1   
    17     9    10 ar  
    18     9    24 1   
    19    10    11 ar  
    20    10    12 1   
    21    11    25 1   
    22    12    26 1   
    23    12    27 1   
    24    12    28 1   
    25    13    14 ar  
    26    13    29 1   
    27    14    15 ar  
    28    14    30 1   
    29    15    16 ar  
    30    15    17 1   
    31    16    31 1   
    32    17    18 2   
    33    17    19 1   
    34    18    32 1   
    35    19    33 1   
    36    19    34 1   
    37    19    35 1   
@<TRIPOS>SUBSTRUCTURE
     1 23M         1 TEMP              0 ****  ****    0 ROOT
