@<TRIPOS>MOLECULE
molecule
   25    25     1     0     0
SMALL
bcc


@<TRIPOS>ATOM
      1 CAH          0.0000     0.0000     0.0000 ca         1 23N      -0.109500
      2 CAF          1.3820     0.0000     0.0000 ca         1 23N      -0.141000
      3 CAE          2.0730     0.0000     1.1970 ca         1 23N      -0.147000
      4 CAG          1.3810    -0.0000     2.3950 ca         1 23N      -0.141000
      5 CAI         -0.0010    -0.0000     2.3950 ca         1 23N      -0.109500
      6 CAM         -0.6920    -0.0010     1.1970 ca         1 23N      -0.056300
      7 CAJ         -2.1990     0.0040     1.1960 c3         1 23N      -0.029100
      8 CAN         -2.7140    -1.4360     1.1920 c3         1 23N      -0.182700
      9 CAL         -2.3180    -2.1160     2.4780 c          1 23N       0.894600
     10 OAD         -2.3580    -1.5060     3.5190 o          1 23N      -0.829800
     11 OAA         -1.9220    -3.3980     2.4650 o          1 23N      -0.829800
     12 CAK         -4.2390    -1.4320     1.0650 c3         1 23N      -0.053700
     13 NAO         -4.6190    -0.8910    -0.2410 no         1 23N       0.223300
     14 OAC         -4.0540    -1.2770    -1.2490 o          1 23N      -0.244500
     15 OAB         -5.5020    -0.0540    -0.3210 o          1 23N      -0.244500
     16 HAH         -0.5410    -0.0000    -0.9380 ha         1 23N       0.146500
     17 HAF          1.9240     0.0000    -0.9380 ha         1 23N       0.113500
     18 HAE          3.1560    -0.0000     1.1980 ha         1 23N       0.107000
     19 HAG          1.9230     0.0000     3.3330 ha         1 23N       0.113500
     20 HAI         -0.5430    -0.0010     3.3330 ha         1 23N       0.146500
     21 HAJ1        -2.5590     0.5140     2.0820 hc         1 23N       0.043700
     22 HAJ2        -2.5580     0.5190     0.3130 hc         1 23N       0.043700
     23 HAN         -2.2840    -1.9710     0.3540 hc         1 23N       0.083700
     24 HAK1        -4.6650    -0.8170     1.8490 h1         1 23N       0.100200
     25 HAK2        -4.6110    -2.4450     1.1590 h1         1 23N       0.100200
@<TRIPOS>BOND
     1     2     1 ar  
     2     2     3 ar  
     3     1     6 ar  
     4    15    13 1   
     5     3     4 ar  
     6    12    13 1   
     7    12     8 1   
     8     6     7 1   
     9     6     5 ar  
    10    13    14 1   
    11     7     8 1   
    12     4     5 ar  
    13     8     9 1   
    14     9    10 1   
    15     9    11 1   
    16     1    16 1   
    17     2    17 1   
    18     3    18 1   
    19     4    19 1   
    20     5    20 1   
    21     7    21 1   
    22     7    22 1   
    23     8    23 1   
    24    12    24 1   
    25    12    25 1   
@<TRIPOS>SUBSTRUCTURE
     1 23N         1 TEMP              0 ****  ****    0 ROOT
