@<TRIPOS>MOLECULE
23Q
   55    58     1     0     0
SMALL
bcc


@<TRIPOS>ATOM
      1 N1           0.0000     0.0000     0.0000 n3         1 23Q      -0.542600
      2 C4           1.9730     0.0000     1.4450 c3         1 23Q       0.013600
      3 C5          -0.0920    -1.2390     2.1070 c3         1 23Q      -0.039400
      4 C6           1.4680     0.0000     0.0000 c3         1 23Q       0.165800
      5 C7          -2.7260    -0.4390    -0.3310 ca         1 23Q      -0.056300
      6 C8           1.4390    -1.2380     2.1710 c3         1 23Q      -0.107500
      7 C10          3.4800    -0.0270     1.4510 ca         1 23Q      -0.204300
      8 C13         -4.8060    -1.3460     0.4640 ca         1 23Q       0.143100
      9 C15          4.1870     1.0010     2.0450 ca         1 23Q      -0.046000
     10 C22          4.1550    -1.0830     0.8650 ca         1 23Q      -0.097000
     11 C26         -6.8120    -0.5500    -0.5370 c3         1 23Q       0.241700
     12 F21          6.5650     1.7920     4.0450 f          1 23Q      -0.226300
     13 C18          5.5710     0.9760     2.0500 ca         1 23Q      -0.118300
     14 C25          6.2450    -0.0760     1.4600 ca         1 23Q      -0.039000
     15 C23          5.5370    -1.1070     0.8700 ca         1 23Q      -0.079000
     16 N17          1.8710    -1.2090     3.5740 nz         1 23Q       0.076400
     17 C2          -0.5310    -1.2040     0.6420 c3         1 23Q       0.228800
     18 C3          -2.0350    -1.2320     0.5590 ca         1 23Q      -0.133300
     19 C9          -2.7270    -2.0830     1.4080 ca         1 23Q      -0.214000
     20 C16         -2.0160     0.5070    -1.2660 c3         1 23Q       0.035900
     21 C14         -0.5360     0.1380    -1.3610 c3         1 23Q       0.161800
     22 C12         -4.1120    -0.4970    -0.3790 ca         1 23Q      -0.171000
     23 O20         -6.1640    -1.4000     0.4130 os         1 23Q      -0.284900
     24 C11         -4.1080    -2.1450     1.3650 ca         1 23Q       0.162100
     25 O19         -4.7810    -2.9820     2.2000 os         1 23Q      -0.280900
     26 C27         -3.9970    -3.7720     3.0970 c3         1 23Q       0.251700
     27 H4           1.6210     0.8920     1.9490 hc         1 23Q       0.060700
     28 H5           0.0120    -0.2010     2.4000 hc         1 23Q       0.051200
     29 H5A         -0.6130    -1.8900     2.7990 hc         1 23Q       0.051200
     30 H6           1.8170     0.8990    -0.4930 h1         1 23Q       0.035700
     31 H6A          1.8170    -0.8990    -0.4930 h1         1 23Q       0.035700
     32 H8           1.8190    -2.1300     1.6890 hx         1 23Q       0.088700
     33 H15          3.5810     1.4170     2.8400 ha         1 23Q       0.098000
     34 H22          3.6010    -1.8900     0.4030 ha         1 23Q       0.111000
     35 H24          7.2920     2.2210     2.1930 h1         1 23Q       0.027200
     36 H24A         5.7720     3.0160     2.6260 h1         1 23Q       0.027200
     37 H26         -6.4730    -0.8000    -1.5350 h1         1 23Q       0.002700
     38 H26A        -7.8840    -0.6900    -0.4740 h1         1 23Q       0.002700
     39 H26B        -6.5690     0.4830    -0.3210 h1         1 23Q       0.002700
     40 H25          7.3280    -0.0960     1.4640 ha         1 23Q       0.127000
     41 H23          6.0660    -1.9330     0.4100 ha         1 23Q       0.124000
     42 HN17         1.4200    -1.9460     4.0780 hn         1 23Q       0.224800
     43 HN1A         1.6250    -0.3280     3.9810 hn         1 23Q       0.224800
     44 H2          -0.1360    -2.0760     0.1350 h1         1 23Q       0.016700
     45 H9          -1.9320    -2.7840     1.6350 ha         1 23Q       0.126000
     46 H16         -2.1100     1.5190    -0.8910 hc         1 23Q       0.034200
     47 H16A        -2.4650     0.4400    -2.2500 hc         1 23Q       0.034200
     48 H14         -0.4410    -0.8110    -1.8750 h1         1 23Q       0.022700
     49 H14A        -0.0060     0.9360    -1.8680 h1         1 23Q       0.022700
     50 H12         -4.6540     0.1310    -1.0770 ha         1 23Q       0.135000
     51 H27         -3.3110    -4.3890     2.5300 h1         1 23Q      -0.006633
     52 H27A        -4.6510    -4.4050     3.6850 h1         1 23Q      -0.006633
     53 H27B        -3.4370    -3.1200     3.7560 h1         1 23Q      -0.006633
     54 C24          6.3410     2.0970     2.6980 c3         1 23Q       0.268200
     55 H173         2.8630    -1.3320     3.6200 hn         1 23Q       0.224800
@<TRIPOS>BOND
     1     1     4 1   
     2     1    17 1   
     3     1    21 1   
     4     2     4 1   
     5     2     6 1   
     6     2     7 1   
     7     2    27 1   
     8     3     6 1   
     9     3    17 1   
    10     3    28 1   
    11     3    29 1   
    12     4    30 1   
    13     4    31 1   
    14     5    18 ar  
    15     5    20 1   
    16     5    22 ar  
    17     6    16 1   
    18     6    32 1   
    19     7     9 ar  
    20     7    10 ar  
    21     8    22 ar  
    22     8    23 1   
    23     8    24 ar  
    24     9    13 ar  
    25     9    33 1   
    26    10    15 ar  
    27    10    34 1   
    28    11    23 1   
    29    11    37 1   
    30    11    38 1   
    31    11    39 1   
    32    12    54 1   
    33    13    14 ar  
    34    13    54 1   
    35    14    15 ar  
    36    14    40 1   
    37    15    41 1   
    38    16    42 1   
    39    16    43 1   
    40    16    55 1   
    41    17    18 1   
    42    17    44 1   
    43    18    19 ar  
    44    19    24 ar  
    45    19    45 1   
    46    20    21 1   
    47    20    46 1   
    48    20    47 1   
    49    21    48 1   
    50    21    49 1   
    51    22    50 1   
    52    24    25 1   
    53    25    26 1   
    54    26    51 1   
    55    26    52 1   
    56    26    53 1   
    57    35    54 1   
    58    36    54 1   
@<TRIPOS>SUBSTRUCTURE
     1 23Q         1 TEMP              0 ****  ****    0 ROOT
