@<TRIPOS>MOLECULE
molecule
   79    82     1     0     0
SMALL
bcc


@<TRIPOS>ATOM
      1 O3           0.0000     0.0000     0.0000 oh         1 23R      -0.610800
      2 C3           1.4290     0.0000     0.0000 c3         1 23R       0.156100
      3 C2           1.9370     0.0000     1.4420 c3         1 23R      -0.074700
      4 C29          1.2980     1.1610     2.2060 c3         1 23R      -0.082100
      5 C1           3.4610     0.1590     1.4560 c3         1 23R       0.193300
      6 O1           3.8190     1.4130     0.8730 oh         1 23R      -0.594800
      7 C10          4.0660    -0.9710     0.6460 ce         1 23R      -0.089200
      8 C19          5.1010    -1.6780     1.0990 c2         1 23R      -0.211000
      9 C4           1.9380    -1.2470    -0.7300 c3         1 23R      -0.058200
     10 C5           3.4520    -1.2520    -0.6680 ce         1 23R      -0.082200
     11 C6           4.2040    -1.4990    -1.7610 cf         1 23R      -0.118000
     12 C7           5.6650    -1.4930    -1.6610 cf         1 23R      -0.160000
     13 C8           6.4080    -1.7380    -2.7410 c2         1 23R      -0.091400
     14 C9           5.7950    -2.0300    -4.1030 c3         1 23R      -0.044200
     15 C11          6.4250    -1.1470    -5.1790 c3         1 23R      -0.078400
     16 C12          7.9610    -1.1670    -5.1050 c3         1 23R      -0.067400
     17 C14          7.9070    -1.7410    -2.7010 c3         1 23R      -0.034500
     18 C13          8.3570    -0.6740    -3.7320 c3         1 23R      -0.060000
     19 C18          7.6330     0.6410    -3.4390 c3         1 23R      -0.094100
     20 C15          8.5610    -1.2110    -1.4230 c3         1 23R      -0.075400
     21 C16          9.9690    -0.7710    -1.9150 c3         1 23R      -0.077400
     22 C17          9.8360    -0.4970    -3.4270 c3         1 23R      -0.049700
     23 C20         10.2760     0.9350    -3.7370 c3         1 23R       0.144800
     24 C22         11.7780     1.0980    -3.4370 c3         1 23R      -0.105400
     25 C21          9.9990     1.2580    -5.2060 c3         1 23R      -0.111100
     26 O20          9.5690     1.8560    -2.8890 os         1 23R      -0.401600
     27 C24         10.4750     2.9430    -2.6010 c3         1 23R       0.122400
     28 C23         11.8350     2.2320    -2.3860 c3         1 23R      -0.101700
     29 C25         12.9990     3.1840    -2.6700 c3         1 23R      -0.059400
     30 C26         13.1010     4.2160    -1.5450 c3         1 23R       0.146800
     31 C28         13.3420     3.4990    -0.2160 c3         1 23R      -0.120100
     32 C27         14.2650     5.1670    -1.8300 c3         1 23R      -0.120100
     33 O26         11.8840     4.9610    -1.4720 oh         1 23R      -0.606800
     34 HO3         -0.3140     0.4670    -0.7560 ho         1 23R       0.401000
     35 H3           1.7930     0.8850    -0.5080 h1         1 23R       0.055700
     36 H2           1.6710    -0.9380     1.9150 hc         1 23R       0.066700
     37 H29          1.8400     1.3280     3.1290 hc         1 23R       0.037700
     38 H29A         0.2660     0.9210     2.4320 hc         1 23R       0.037700
     39 H29B         1.3350     2.0580     1.5990 hc         1 23R       0.037700
     40 H1           3.8210     0.1090     2.4760 h1         1 23R       0.038700
     41 HO1          4.3090     1.9220     1.4980 ho         1 23R       0.401000
     42 H19          5.5310    -1.4500     2.0680 ha         1 23R       0.121500
     43 H19A         5.5130    -2.4810     0.5000 ha         1 23R       0.121500
     44 H4           1.6160    -1.2190    -1.7640 hc         1 23R       0.054700
     45 H4A          1.5510    -2.1360    -0.2460 hc         1 23R       0.054700
     46 H6           3.7270    -1.7010    -2.7120 ha         1 23R       0.132000
     47 H7           6.1420    -1.2900    -0.7100 ha         1 23R       0.147000
     48 H9           4.7300    -1.8350    -4.0620 hc         1 23R       0.047200
     49 H9A          5.9630    -3.0700    -4.3530 hc         1 23R       0.047200
     50 H11          6.0790    -0.1290    -5.0460 hc         1 23R       0.043700
     51 H11A         6.1160    -1.5060    -6.1530 hc         1 23R       0.043700
     52 H12          8.3220    -2.1780    -5.2500 hc         1 23R       0.041700
     53 H12A         8.3730    -0.5110    -5.8620 hc         1 23R       0.041700
     54 H14          8.3000    -2.7160    -2.9620 hc         1 23R       0.061700
     55 H18          7.9780     1.0400    -2.4920 hc         1 23R       0.051033
     56 H18A         7.8430     1.3530    -4.2280 hc         1 23R       0.051033
     57 H18B         6.5660     0.4620    -3.3880 hc         1 23R       0.051033
     58 H15          8.6430    -1.9970    -0.6820 hc         1 23R       0.049700
     59 H15A         8.0100    -0.3630    -1.0350 hc         1 23R       0.049700
     60 H16         10.6860    -1.5660    -1.7440 hc         1 23R       0.045700
     61 H16A        10.2760     0.1310    -1.4000 hc         1 23R       0.045700
     62 H17         10.4240    -1.2110    -3.9920 hc         1 23R       0.055700
     63 H22         12.3130     1.3880    -4.3340 hc         1 23R       0.051700
     64 H22A        12.1840     0.1820    -3.0260 hc         1 23R       0.051700
     65 H21         10.7260     1.9800    -5.5600 hc         1 23R       0.043700
     66 H21A         9.0030     1.6710    -5.3040 hc         1 23R       0.043700
     67 H21B        10.0740     0.3520    -5.7950 hc         1 23R       0.043700
     68 H24         10.1710     3.4620    -1.6990 h1         1 23R       0.060700
     69 H24A        10.5300     3.6240    -3.4410 h1         1 23R       0.060700
     70 H23         11.8980     1.8230    -1.3850 hc         1 23R       0.064700
     71 H25         13.9220     2.6180    -2.7250 hc         1 23R       0.051200
     72 H25A        12.8290     3.6910    -3.6120 hc         1 23R       0.051200
     73 H28         13.9490     2.6180    -0.3850 hc         1 23R       0.043033
     74 H28A        13.8550     4.1660     0.4670 hc         1 23R       0.043033
     75 H28B        12.3910     3.2050     0.2140 hc         1 23R       0.043033
     76 H27         15.1840     4.5990    -1.9090 hc         1 23R       0.043033
     77 H27A        14.0840     5.6920    -2.7600 hc         1 23R       0.043033
     78 H27B        14.3520     5.8830    -1.0220 hc         1 23R       0.043033
     79 HO26        12.0540     5.8030    -1.0820 ho         1 23R       0.403000
@<TRIPOS>BOND
     1     1     2 1
     2     2     3 1
     3     2     9 1
     4     3     4 1
     5     3     5 1
     6     5     6 1
     7     5     7 1
     8     7     8 2
     9     7    10 1
    10     9    10 1
    11    10    11 2
    12    11    12 1
    13    12    13 2
    14    13    14 1
    15    13    17 1
    16    14    15 1
    17    15    16 1
    18    16    18 1
    19    17    18 1
    20    17    20 1
    21    18    19 1
    22    18    22 1
    23    20    21 1
    24    21    22 1
    25    22    23 1
    26    23    24 1
    27    23    25 1
    28    23    26 1
    29    24    28 1
    30    26    27 1
    31    27    28 1
    32    28    29 1
    33    29    30 1
    34    30    31 1
    35    30    32 1
    36    30    33 1
    37     1    34 1
    38     2    35 1
    39     3    36 1
    40     4    37 1
    41     4    38 1
    42     4    39 1
    43     5    40 1
    44     6    41 1
    45     8    42 1
    46     8    43 1
    47     9    44 1
    48     9    45 1
    49    11    46 1
    50    12    47 1
    51    14    48 1
    52    14    49 1
    53    15    50 1
    54    15    51 1
    55    16    52 1
    56    16    53 1
    57    17    54 1
    58    19    55 1
    59    19    56 1
    60    19    57 1
    61    20    58 1
    62    20    59 1
    63    21    60 1
    64    21    61 1
    65    22    62 1
    66    24    63 1
    67    24    64 1
    68    25    65 1
    69    25    66 1
    70    25    67 1
    71    27    68 1
    72    27    69 1
    73    28    70 1
    74    29    71 1
    75    29    72 1
    76    31    73 1
    77    31    74 1
    78    31    75 1
    79    32    76 1
    80    32    77 1
    81    32    78 1
    82    33    79 1
@<TRIPOS>SUBSTRUCTURE
     1 23R         1 TEMP              0 ****  ****    0 ROOT
