@<TRIPOS>MOLECULE
23R
   79    82     1     0     0
SMALL
bcc


@<TRIPOS>ATOM
      1 O3         -0.5510   -0.6450    0.0840 oh        1 23R     -0.602800
      2 C3          0.8510   -0.4190    0.1910 c3        1 23R      0.148100
      3 C2          1.2560   -0.7750    1.6230 c3        1 23R     -0.092700
      4 C29         0.4500    0.0130    2.6300 c3        1 23R     -0.094100
      5 C1          2.7640   -0.5480    1.7970 c3        1 23R      0.184300
      6 O1          3.1270    0.8230    1.6670 oh        1 23R     -0.589800
      7 C10         3.5480   -1.3130    0.7600 ce        1 23R     -0.068200
      8 C19         4.5970   -2.0610    1.1210 c2        1 23R     -0.195000
      9 C4          1.6060   -1.2880   -0.8140 c3        1 23R     -0.072200
     10 C5          3.0820   -1.2020   -0.6220 ce        1 23R     -0.070200
     11 C6          3.8980   -1.0480   -1.6860 cf        1 23R     -0.108000
     12 C7          5.3350   -0.9190   -1.6150 cf        1 23R     -0.149000
     13 C8          6.1980   -1.2060   -2.6050 c2        1 23R     -0.079400
     14 C9          5.8210   -1.8080   -3.9200 c3        1 23R     -0.043200
     15 C11         6.4940   -1.1470   -5.1120 c3        1 23R     -0.072400
     16 C12         7.9780   -0.8830   -4.9230 c3        1 23R     -0.068400
     17 C14         7.6690   -1.0420   -2.4770 c3        1 23R     -0.036500
     18 C13         8.2330   -0.1460   -3.6170 c3        1 23R     -0.033000
     19 C18         7.5610    1.2160   -3.6260 c3        1 23R     -0.079100
     20 C15         8.2890   -0.4600   -1.2150 c3        1 23R     -0.072400
     21 C16         9.6720    0.0200   -1.6570 c3        1 23R     -0.076400
     22 C17         9.7160   -0.0330   -3.1970 c3        1 23R     -0.053700
     23 C20        10.5650    1.1020   -3.7850 c3        1 23R      0.163800
     24 C22        12.0140    1.0100   -3.2530 c3        1 23R     -0.104400
     25 C21        10.5660    1.0760   -5.3080 c3        1 23R     -0.103100
     26 O20        10.0360    2.3750   -3.3670 os        1 23R     -0.419600
     27 C24        11.0620    3.1910   -2.7980 c3        1 23R      0.130400
     28 C23        12.2750    2.3100   -2.4920 c3        1 23R     -0.087700
     29 C25        13.5900    2.9400   -2.9000 c3        1 23R     -0.059400
     30 C26        13.9740    4.2030   -2.1200 c3        1 23R      0.148800
     31 C28        13.8060    4.0340   -0.6160 c3        1 23R     -0.124100
     32 C27        15.4240    4.5640   -2.4380 c3        1 23R     -0.124100
     33 O26        13.1130    5.2410   -2.5950 oh        1 23R     -0.599800
     34 HO3        -0.7930   -0.4440   -0.8270 ho        1 23R      0.400000
     35 H3          1.0720    0.6690    0.0010 h1        1 23R      0.051700
     36 H2          1.0550   -1.8710    1.7830 hc        1 23R      0.069700
     37 H29         0.5170    1.1100    2.4270 hc        1 23R      0.041367
     38 H29A        0.8150   -0.1860    3.6650 hc        1 23R      0.041367
     39 H29B       -0.6260   -0.2830    2.5600 hc        1 23R      0.041367
     40 H1          3.0550   -0.8970    2.8320 h1        1 23R      0.035700
     41 HO1         2.6090    1.3080    2.3200 ho        1 23R      0.400000
     42 H19         5.1730   -2.6490    0.3940 ha        1 23R      0.119500
     43 H19A        4.9380   -2.1320    2.1620 ha        1 23R      0.119500
     44 H4          1.3210   -0.9740   -1.8530 hc        1 23R      0.052700
     45 H4A         1.2800   -2.3570   -0.6870 hc        1 23R      0.052700
     46 H6          3.4500   -0.9800   -2.6940 ha        1 23R      0.122000
     47 H7          5.7230   -0.5340   -0.6520 ha        1 23R      0.138000
     48 H9          4.7110   -1.7720   -4.0740 hc        1 23R      0.045200
     49 H9A         6.1140   -2.8940   -3.8910 hc        1 23R      0.045200
     50 H11         6.3540   -1.8040   -6.0100 hc        1 23R      0.040700
     51 H11A        5.9770   -0.1740   -5.3300 hc        1 23R      0.040700
     52 H12         8.5380   -1.8550   -4.9210 hc        1 23R      0.039700
     53 H12A        8.3540   -0.2800   -5.7900 hc        1 23R      0.039700
     54 H14         8.1110   -2.0770   -2.6120 hc        1 23R      0.049700
     55 H18         7.8890    1.8040   -4.5160 hc        1 23R      0.043033
     56 H18A        6.4500    1.1080   -3.6500 hc        1 23R      0.043033
     57 H18B        7.8440    1.7900   -2.7100 hc        1 23R      0.043033
     58 H15         8.3590   -1.2250   -0.4040 hc        1 23R      0.046700
     59 H15A        7.6830    0.3980   -0.8290 hc        1 23R      0.046700
     60 H16         9.8540    1.0680   -1.3070 hc        1 23R      0.044200
     61 H16A       10.4710   -0.6320   -1.2260 hc        1 23R      0.044200
     62 H17        10.2240   -0.9880   -3.5130 hc        1 23R      0.043700
     63 H22        12.1390    0.1290   -2.5770 hc        1 23R      0.052200
     64 H22A       12.7330    0.8870   -4.1010 hc        1 23R      0.052200
     65 H21        11.3470    1.7710   -5.7020 hc        1 23R      0.042700
     66 H21A       10.7740    0.0440   -5.6740 hc        1 23R      0.042700
     67 H21B        9.5770    1.4150   -5.6990 hc        1 23R      0.042700
     68 H24        10.6250    3.6430   -1.8720 h1        1 23R      0.056200
     69 H24A       11.3110    4.0020   -3.5310 h1        1 23R      0.056200
     70 H23        12.2990    2.0890   -1.3900 hc        1 23R      0.054700
     71 H25        14.4100    2.1880   -2.7530 hc        1 23R      0.053200
     72 H25A       13.5520    3.2060   -3.9900 hc        1 23R      0.053200
     73 H28        14.2900    3.0880   -0.2800 hc        1 23R      0.043700
     74 H28A       14.2760    4.8910   -0.0760 hc        1 23R      0.043700
     75 H28B       12.7200    4.0050   -0.3530 hc        1 23R      0.043700
     76 H27        15.6960    5.5300   -1.9490 hc        1 23R      0.043700
     77 H27A       16.1080    3.7670   -2.0660 hc        1 23R      0.043700
     78 H27B       15.5560    4.6750   -3.5410 hc        1 23R      0.043700
     79 HO26       13.3500    6.0420   -2.1140 ho        1 23R      0.399000
@<TRIPOS>BOND
     1    1    2 1   
     2    1   34 1   
     3    2    3 1   
     4    2    9 1   
     5    2   35 1   
     6    3    4 1   
     7    3    5 1   
     8    3   36 1   
     9    4   37 1   
    10    4   38 1   
    11    4   39 1   
    12    5    6 1   
    13    5    7 1   
    14    5   40 1   
    15    6   41 1   
    16    7    8 2   
    17    7   10 1   
    18    8   42 1   
    19    8   43 1   
    20    9   10 1   
    21    9   44 1   
    22    9   45 1   
    23   10   11 2   
    24   11   12 1   
    25   11   46 1   
    26   12   13 2   
    27   12   47 1   
    28   13   14 1   
    29   13   17 1   
    30   14   15 1   
    31   14   48 1   
    32   14   49 1   
    33   15   16 1   
    34   15   50 1   
    35   15   51 1   
    36   16   18 1   
    37   16   52 1   
    38   16   53 1   
    39   17   18 1   
    40   17   20 1   
    41   17   54 1   
    42   18   19 1   
    43   18   22 1   
    44   19   55 1   
    45   19   56 1   
    46   19   57 1   
    47   20   21 1   
    48   20   58 1   
    49   20   59 1   
    50   21   22 1   
    51   21   60 1   
    52   21   61 1   
    53   22   23 1   
    54   22   62 1   
    55   23   24 1   
    56   23   25 1   
    57   23   26 1   
    58   24   28 1   
    59   24   63 1   
    60   24   64 1   
    61   25   65 1   
    62   25   66 1   
    63   25   67 1   
    64   26   27 1   
    65   27   28 1   
    66   27   68 1   
    67   27   69 1   
    68   28   29 1   
    69   28   70 1   
    70   29   30 1   
    71   29   71 1   
    72   29   72 1   
    73   30   31 1   
    74   30   32 1   
    75   30   33 1   
    76   31   73 1   
    77   31   74 1   
    78   31   75 1   
    79   32   76 1   
    80   32   77 1   
    81   32   78 1   
    82   33   79 1   
@<TRIPOS>SUBSTRUCTURE
     1 23R         1 TEMP              0 ****  ****    0 ROOT
