@<TRIPOS>MOLECULE
molecule
   41    42     1     0     0
SMALL
bcc


@<TRIPOS>ATOM
      1 PA           0.0000     0.0000     0.0000 p5         1 23T       1.259800
      2 O1A          1.4790     0.0000     0.0000 o          1 23T      -0.783000
      3 O2A         -0.5370     0.0000     1.5180 o          1 23T      -0.783000
      4 O5'         -0.5360    -1.3150    -0.7590 os         1 23T      -0.547200
      5 C5'          0.0660    -2.4390    -0.1140 c3         1 23T       0.168400
      6 C4'         -0.4040    -3.7280    -0.7910 c3         1 23T       0.142100
      7 O4'          0.1750    -3.8560    -2.1090 os         1 23T      -0.361600
      8 C1'          0.1200    -5.2500    -2.4560 c3         1 23T       0.322500
      9 N1           1.2900    -5.6100    -3.2610 n          1 23T      -0.327000
     10 C6           1.1160    -6.2300    -4.4680 cc         1 23T      -0.200400
     11 C2           2.5240    -5.3280    -2.8060 c          1 23T       0.805500
     12 O2           2.6550    -4.7780    -1.7300 o          1 23T      -0.673500
     13 N3           3.6160    -5.6480    -3.5260 ns         1 23T      -0.573500
     14 C4           3.4870    -6.2640    -4.7180 c          1 23T       0.675700
     15 O4           4.4740    -6.5530    -5.3700 o          1 23T      -0.773500
     16 C5           2.1930    -6.5610    -5.2110 cd         1 23T      -0.360400
     17 C5M          2.0220    -7.2450    -6.5430 c3         1 23T       0.032100
     18 C2'          0.1230    -6.0520    -1.1400 c3         1 23T      -0.127400
     19 C3'          0.1340    -4.9690    -0.0350 c3         1 23T      -0.110400
     20 O3A         -0.5380     1.3140    -0.7590 os         1 23T      -0.641800
     21 PB           0.4200     2.5310    -0.3160 p5         1 23T       1.254800
     22 O1B          1.8330     2.0930    -0.3740 o          1 23T      -0.659000
     23 O2B          0.0580     2.9800     1.1860 o          1 23T      -0.659000
     24 O3B          0.2030     3.7750    -1.3160 os         1 23T      -0.643800
     25 PG           1.5040     4.7140    -1.1790 p5         1 23T       1.169900
     26 O1G          1.5490     5.7510    -2.4110 o          1 23T      -0.800167
     27 O2G          2.7220     3.8740    -1.1970 o          1 23T      -0.800167
     28 O3G          1.4340     5.5290     0.2070 o          1 23T      -0.800167
     29 H5'1         1.1440    -2.3640    -0.1900 h1         1 23T       0.065700
     30 H5'2        -0.2220    -2.4540     0.9300 h1         1 23T       0.065700
     31 H4'         -1.4850    -3.7600    -0.8490 h1         1 23T       0.024700
     32 H1'         -0.7900    -5.4550    -3.0070 h2         1 23T       0.036700
     33 H6           0.1180    -6.4490    -4.8280 h4         1 23T       0.111000
     34 HN3          4.5270    -5.4310    -3.1730 hn         1 23T       0.327500
     35 H5M1         2.5680    -8.1800    -6.5410 hc         1 23T      -0.000300
     36 H5M2         2.4050    -6.6050    -7.3290 hc         1 23T      -0.000300
     37 H5M3         0.9710    -7.4400    -6.7170 hc         1 23T      -0.000300
     38 H2'1         1.0120    -6.6670    -1.0750 hc         1 23T       0.031200
     39 H2'2        -0.7720    -6.6590    -1.0660 hc         1 23T       0.031200
     40 H3'1        -0.5300    -5.2420     0.7770 hc         1 23T       0.051700
     41 H3'2         1.1410    -4.7950     0.3220 hc         1 23T       0.051700
@<TRIPOS>BOND
     1     1     2 1
     2     1     3 1
     3     1     4 1
     4     1    20 1
     5     4     5 1
     6     5     6 1
     7     5    29 1
     8     5    30 1
     9     6     7 1
    10     6    19 1
    11     6    31 1
    12     7     8 1
    13     8     9 1
    14     8    18 1
    15     8    32 1
    16     9    10 1
    17     9    11 1
    18    10    16 2
    19    10    33 1
    20    11    12 2
    21    11    13 1
    22    13    14 1
    23    13    34 1
    24    14    15 2
    25    14    16 1
    26    16    17 1
    27    17    35 1
    28    17    36 1
    29    17    37 1
    30    18    19 1
    31    18    38 1
    32    18    39 1
    33    19    40 1
    34    19    41 1
    35    20    21 1
    36    21    22 1
    37    21    23 1
    38    21    24 1
    39    24    25 1
    40    25    26 1
    41    25    27 1
    42    25    28 1
@<TRIPOS>SUBSTRUCTURE
     1 23T         1 TEMP              0 ****  ****    0 ROOT
