@<TRIPOS>MOLECULE
23U
   62    65     1     0     0
SMALL
bcc


@<TRIPOS>ATOM
      1 C1           0.0000     0.0000     0.0000 ca         1 23U      -0.074300
      2 C2           1.3820     0.0000     0.0000 ca         1 23U      -0.159250
      3 C3           2.0740     0.0000     1.1970 ca         1 23U      -0.073500
      4 C4           1.3820     0.0000     2.3950 ca         1 23U      -0.073500
      5 C5           0.0010     0.0010     2.3950 ca         1 23U      -0.073500
      6 C6          -0.6920    -0.0000     1.1980 ca         1 23U      -0.159250
      7 C7          -0.2530     1.1360    -2.1680 ca         1 23U      -0.074300
      8 C8          -0.7540     0.0060    -1.3040 c3         1 23U       0.064900
      9 C9          -0.5340    -1.3240    -2.0270 c3         1 23U      -0.117500
     10 N2           0.9070    -1.5670    -2.1790 nz         1 23U      -0.033600
     11 C10         -1.1490    -2.4410    -1.2210 c          1 23U       0.595100
     12 O32         -0.4490    -3.1370    -0.5180 o          1 23U      -0.623100
     13 N1          -2.4760    -2.6640    -1.2840 n          1 23U      -0.079800
     14 C11         -3.4400    -1.8980    -2.0950 c3         1 23U       0.020000
     15 C12         -4.8020    -2.0960    -1.3850 c3         1 23U      -0.022400
     16 C13         -4.6980    -3.5710    -0.9160 c3         1 23U      -0.026400
     17 C14         -3.2030    -3.7170    -0.5600 c3         1 23U      -0.048300
     18 C15         -2.7020    -5.0730    -0.9870 c          1 23U       0.564100
     19 N23         -3.2310    -6.1880    -0.4460 ns         1 23U      -0.166900
     20 C16         -2.7440    -7.5050    -0.8620 c3         1 23U       0.111300
     21 C17         -3.4940    -8.5770    -0.1140 ca         1 23U      -0.132300
     22 C18         -4.6610    -9.0990    -0.6400 ca         1 23U      -0.085000
     23 C19         -5.3500   -10.0830     0.0450 ca         1 23U      -0.086000
     24 C20         -4.8720   -10.5440     1.2570 ca         1 23U      -0.080000
     25 C21         -3.7040   -10.0230     1.7850 ca         1 23U      -0.039600
     26 C22         -3.0120    -9.0420     1.0950 ca         1 23U      -0.083000
     27 Cl1         -3.1040   -10.6020     3.3070 cl         1 23U      -0.004400
     28 O22         -1.8220    -5.1600    -1.8170 o          1 23U      -0.658100
     29 C23         -1.0580     2.2340    -2.4040 ca         1 23U      -0.159250
     30 C24         -0.5990     3.2690    -3.1970 ca         1 23U      -0.073500
     31 C25          0.6660     3.2070    -3.7520 ca         1 23U      -0.073500
     32 C26          1.4700     2.1090    -3.5160 ca         1 23U      -0.073500
     33 C27          1.0130     1.0750    -2.7200 ca         1 23U      -0.159250
     34 H2           1.9230     0.0520    -0.9370 ha         1 23U       0.133000
     35 H3           3.1570     0.0200     1.1970 ha         1 23U       0.117000
     36 H4           1.9240     0.0240     3.3330 ha         1 23U       0.121000
     37 H5          -0.5410     0.0050     3.3330 ha         1 23U       0.117000
     38 H6          -1.6880     0.2810     1.5160 ha         1 23U       0.133000
     39 H8          -1.8110     0.1420    -1.1100 hc         1 23U       0.071700
     40 H9          -1.0000    -1.2860    -3.0050 hx         1 23U       0.092700
     41 HN2          1.3340    -0.7750    -2.6180 hn         1 23U       0.258133
     42 HN2A         1.3180    -1.7110    -1.2780 hn         1 23U       0.258133
     43 H11         -3.1710    -0.8480    -2.1050 h1         1 23U       0.027700
     44 H11A        -3.4810    -2.2930    -3.1030 h1         1 23U       0.027700
     45 H12         -5.6220    -1.9690    -2.0820 hc         1 23U       0.036700
     46 H12A        -4.8960    -1.4270    -0.5380 hc         1 23U       0.036700
     47 H13         -4.9660    -4.2470    -1.7190 hc         1 23U       0.040200
     48 H13A        -5.3160    -3.7380    -0.0420 hc         1 23U       0.040200
     49 H14         -3.0670    -3.5880     0.5070 h1         1 23U       0.056700
     50 HN23        -3.9240    -6.1150     0.2720 hn         1 23U       0.180500
     51 H16         -2.9020    -7.6300    -1.9270 h1         1 23U       0.034200
     52 H16A        -1.6860    -7.5850    -0.6430 h1         1 23U       0.034200
     53 H18         -5.0360    -8.7380    -1.5900 ha         1 23U       0.108000
     54 H19         -6.2640   -10.4910    -0.3670 ha         1 23U       0.113000
     55 H20         -5.4140   -11.3130     1.7940 ha         1 23U       0.121000
     56 H22         -2.0980    -8.6330     1.5070 ha         1 23U       0.118000
     57 H23         -2.0380     2.2960    -1.9460 ha         1 23U       0.133000
     58 H24         -1.2310     4.1290    -3.3840 ha         1 23U       0.117000
     59 H25          1.0370     4.0310    -4.3490 ha         1 23U       0.121000
     60 H26          2.4560     2.0540    -3.9610 ha         1 23U       0.117000
     61 H27          2.0460     0.7540    -2.7850 ha         1 23U       0.133000
     62 H231         1.0500    -2.3790    -2.7470 hn         1 23U       0.258133
@<TRIPOS>BOND
     1     1     2 ar  
     2     1     6 ar  
     3     1     8 1   
     4     2     3 ar  
     5     2    34 1   
     6     3     4 ar  
     7     3    35 1   
     8     4     5 ar  
     9     4    36 1   
    10     5     6 ar  
    11     5    37 1   
    12     6    38 1   
    13     7     8 1   
    14     7    29 ar  
    15     7    33 ar  
    16     8     9 1   
    17     8    39 1   
    18     9    10 1   
    19     9    11 1   
    20     9    40 1   
    21    10    41 1   
    22    10    42 1   
    23    10    62 1   
    24    11    12 2   
    25    11    13 1   
    26    13    14 1   
    27    13    17 1   
    28    14    15 1   
    29    14    43 1   
    30    14    44 1   
    31    15    16 1   
    32    15    45 1   
    33    15    46 1   
    34    16    17 1   
    35    16    47 1   
    36    16    48 1   
    37    17    18 1   
    38    17    49 1   
    39    18    19 1   
    40    18    28 2   
    41    19    20 1   
    42    19    50 1   
    43    20    21 1   
    44    20    51 1   
    45    20    52 1   
    46    21    22 ar  
    47    21    26 ar  
    48    22    23 ar  
    49    22    53 1   
    50    23    24 ar  
    51    23    54 1   
    52    24    25 ar  
    53    24    55 1   
    54    25    26 ar  
    55    25    27 1   
    56    26    56 1   
    57    29    30 ar  
    58    29    57 1   
    59    30    31 ar  
    60    30    58 1   
    61    31    32 ar  
    62    31    59 1   
    63    32    33 ar  
    64    32    60 1   
    65    33    61 1   
@<TRIPOS>SUBSTRUCTURE
     1 23U         1 TEMP              0 ****  ****    0 ROOT
