@<TRIPOS>MOLECULE
23V
   44    45     1     0     0
SMALL
bcc


@<TRIPOS>ATOM
      1 C1          0.7090   -0.6750   -0.0380 c3        1 23V      0.332300
      2 N1          0.6300   -1.2100   -1.4600 n4        1 23V     -0.609800
      3 S1         -1.3670   -2.8960   -1.9290 s         1 23V      0.251600
      4 CL1        -2.6260    2.6040   -9.0620 cl        1 23V     -0.004400
      5 C2          2.1630   -0.3070    0.3530 c3        1 23V      0.119100
      6 N2         -1.5500   -0.2630   -2.2670 n4        1 23V     -0.302900
      7 O2          2.8950   -1.5070    0.2710 oh        1 23V     -0.624800
      8 C3          2.0990    0.2750    1.7790 c3        1 23V      0.114100
      9 N3         -0.9630    0.3850   -3.3650 n2        1 23V     -0.630400
     10 O3         -2.1830    1.7960    0.1120 oh        1 23V     -0.657800
     11 C4          1.1340    1.4830    1.8290 c3        1 23V      0.083100
     12 O4          0.9910    1.7870    3.2000 oh        1 23V     -0.573800
     13 C5         -0.2400    1.0910    1.2600 c3        1 23V      0.122100
     14 O5         -0.0820    0.4950   -0.0470 os        1 23V     -0.464600
     15 C6         -1.1600    2.2840    0.9730 c3        1 23V      0.134400
     16 O6          3.4200    0.6800    2.0630 oh        1 23V     -0.585800
     17 C7         -0.7690   -1.5090   -1.8780 c         1 23V      0.033400
     18 C8         -1.6900    0.7060   -4.4170 ce        1 23V      0.599800
     19 C9         -1.1560    1.4130   -5.5580 ca        1 23V     -0.230900
     20 C10        -2.0340    1.6480   -6.6400 ca        1 23V     -0.060000
     21 C11        -1.5780    2.3270   -7.7690 ca        1 23V      0.001400
     22 C12        -0.2490    2.7810   -7.8320 ca        1 23V     -0.023000
     23 C13         0.6140    2.5510   -6.7600 ca        1 23V     -0.132000
     24 C14         0.1720    1.8730   -5.6280 ca        1 23V     -0.045000
     25 H1          0.2860   -1.4660    0.6520 hx        1 23V      0.122700
     26 HN1         1.1850   -2.0880   -1.4770 hn        1 23V      0.502300
     27 H2          2.5960    0.4600   -0.3490 h1        1 23V      0.095700
     28 HN2        -2.5310   -0.5760   -2.4060 hn        1 23V      0.488300
     29 HO2         3.7070   -1.3980    0.7970 ho        1 23V      0.485000
     30 H3          1.7630   -0.5110    2.5140 h1        1 23V      0.085700
     31 HO3        -2.9630    2.3470    0.2580 ho        1 23V      0.447000
     32 H4          1.5730    2.3410    1.2490 h1        1 23V      0.086700
     33 HO4         0.8980    2.7460    3.2880 ho        1 23V      0.439000
     34 H5         -0.7480    0.3520    1.9390 h1        1 23V      0.092700
     35 H6         -0.6030    3.1010    0.4410 h1        1 23V      0.078200
     36 H6A        -1.5760    2.6610    1.9440 h1        1 23V      0.078200
     37 HO6         3.4380    0.9780    2.9870 ho        1 23V      0.459000
     38 H8         -2.7820    0.4610   -4.5000 h4        1 23V      0.030800
     39 H10        -3.0790    1.2980   -6.5980 ha        1 23V      0.162000
     40 H12         0.1100    3.3200   -8.7280 ha        1 23V      0.188000
     41 H13         1.6550    2.9130   -6.8140 ha        1 23V      0.174000
     42 H14         0.8690    1.7100   -4.7920 ha        1 23V      0.144000
     43 H121        1.0780   -0.5260   -2.0930 hn        1 23V      0.502300
     44 H22        -1.5390    0.4310   -1.4690 hn        1 23V      0.488300
@<TRIPOS>BOND
     1    1    2 1   
     2    1    5 1   
     3    1   14 1   
     4    1   25 1   
     5    2   17 1   
     6    2   26 1   
     7    2   43 1   
     8    3   17 2   
     9    4   21 1   
    10    5    7 1   
    11    5    8 1   
    12    5   27 1   
    13    6    9 1   
    14    6   17 1   
    15    6   28 1   
    16    6   44 1   
    17    7   29 1   
    18    8   11 1   
    19    8   16 1   
    20    8   30 1   
    21    9   18 2   
    22   10   15 1   
    23   10   31 1   
    24   11   12 1   
    25   11   13 1   
    26   11   32 1   
    27   12   33 1   
    28   13   14 1   
    29   13   15 1   
    30   13   34 1   
    31   15   35 1   
    32   15   36 1   
    33   16   37 1   
    34   18   19 1   
    35   18   38 1   
    36   19   20 ar  
    37   19   24 ar  
    38   20   21 ar  
    39   20   39 1   
    40   21   22 ar  
    41   22   23 ar  
    42   22   40 1   
    43   23   24 ar  
    44   23   41 1   
    45   24   42 1   
@<TRIPOS>SUBSTRUCTURE
     1 23V         1 TEMP              0 ****  ****    0 ROOT
