@<TRIPOS>MOLECULE
molecule
   42    43     1     0     0
SMALL
bcc


@<TRIPOS>ATOM
      1 C1           0.0000     0.0000     0.0000 c3         1 23V       0.311500
      2 N1          -0.4890     0.0580    -1.3790 ns         1 23V      -0.484900
      3 S1          -2.4750    -1.4980    -0.5480 s          1 23V      -0.668400
      4 Cl1         -1.3920     1.8780   -10.0850 cl         1 23V      -0.098400
      5 C2           1.5300     0.0000     0.0000 c3         1 23V       0.096100
      6 N2          -2.0650    -0.5440    -2.9930 ns         1 23V      -0.293900
      7 O2           2.0080    -1.1670    -0.6720 oh         1 23V      -0.589800
      8 C3           2.0340     0.0000     1.4480 c3         1 23V       0.111100
      9 N3          -1.3610     0.1920    -3.9550 n2         1 23V      -0.491300
     10 O3          -2.0880     2.3060     2.7960 oh         1 23V      -0.590800
     11 C4           1.4520     1.2140     2.1790 c3         1 23V       0.098100
     12 O4           1.8560     1.1840     3.5490 oh         1 23V      -0.598800
     13 C5          -0.0760     1.1660     2.0950 c3         1 23V       0.154100
     14 O5          -0.4760     1.1370     0.7220 os         1 23V      -0.411600
     15 C6          -0.6620     2.4070     2.7710 c3         1 23V       0.152400
     16 O6           3.4610     0.0720     1.4570 oh         1 23V      -0.608800
     17 C7          -1.6150    -0.5970    -1.7230 cs         1 23V       0.649400
     18 C8          -1.7940     0.2440    -5.1770 ce         1 23V       0.426800
     19 C9          -1.0540     1.0200    -6.1900 ca         1 23V      -0.128900
     20 C10         -1.5170     1.0770    -7.5060 ca         1 23V      -0.098000
     21 C11         -0.8190     1.8060    -8.4480 ca         1 23V       0.024400
     22 C12          0.3380     2.4780    -8.0910 ca         1 23V      -0.104000
     23 C13          0.8010     2.4240    -6.7880 ca         1 23V      -0.126000
     24 C14          0.1110     1.7050    -5.8350 ca         1 23V      -0.090000
     25 H1          -0.3590    -0.9040     0.4770 h2         1 23V       0.122700
     26 HN1          0.0040     0.5970    -2.0630 hn         1 23V       0.333500
     27 H2           1.8900     0.8880    -0.5060 h1         1 23V       0.049700
     28 HN2         -2.8990    -1.0340    -3.2500 hn         1 23V       0.352500
     29 HO2          2.7700    -0.9460    -1.1810 ho         1 23V       0.413000
     30 H3           1.7090    -0.9080     1.9420 h1         1 23V       0.069700
     31 HO3         -2.4400     2.9740     3.3610 ho         1 23V       0.401000
     32 H4           1.8100     2.1220     1.7100 h1         1 23V       0.053700
     33 HO4          2.5380     1.8200     3.6890 ho         1 23V       0.413000
     34 H5          -0.4350     0.2730     2.5930 h1         1 23V       0.076700
     35 H6          -0.2870     2.4760     3.7850 h1         1 23V       0.034700
     36 H6A         -0.3720     3.2910     2.2170 h1         1 23V       0.034700
     37 HO6          3.8090    -0.6550     1.9470 ho         1 23V       0.418000
     38 H8          -2.6990    -0.2820    -5.4530 h4         1 23V      -0.000200
     39 H10         -2.3820     0.4960    -7.8030 ha         1 23V       0.148000
     40 H12          0.8850     3.0440    -8.8350 ha         1 23V       0.148000
     41 H13          1.7060     2.9530    -6.5140 ha         1 23V       0.142000
     42 H14          0.4760     1.6650    -4.8160 ha         1 23V       0.149000
@<TRIPOS>BOND
     1    14     1 1
     2     5     1 1
     3     2     1 1
     4     1    25 1
     5     2    17 1
     6     2    26 1
     7    17     3 2
     8     4    21 1
     9     5     8 1
    10     5     7 1
    11     5    27 1
    12     9     6 1
    13     6    17 1
    14     6    28 1
    15     7    29 1
    16    16     8 1
    17    11     8 1
    18     8    30 1
    19    18     9 2
    20    10    15 1
    21    10    31 1
    22    11    12 1
    23    11    13 1
    24    11    32 1
    25    12    33 1
    26    15    13 1
    27    14    13 1
    28    13    34 1
    29    15    35 1
    30    15    36 1
    31    16    37 1
    32    19    18 1
    33    18    38 1
    34    20    19 ar
    35    24    19 ar
    36    21    20 ar
    37    20    39 1
    38    22    21 ar
    39    22    23 ar
    40    22    40 1
    41    23    24 ar
    42    23    41 1
    43    24    42 1
@<TRIPOS>SUBSTRUCTURE
     1 23V         1 TEMP              0 ****  ****    0 ROOT
