@<TRIPOS>MOLECULE
23W
   16    15     1     0     0
SMALL
bcc


@<TRIPOS>ATOM
      1 CAB         0.1290   -0.0060   -0.0530 c3        1 23W      0.127700
      2 OAF         1.5540   -0.0030    0.0470 os        1 23W     -0.442900
      3 CAH         2.0770   -0.0000    1.3160 c         1 23W      0.633300
      4 OAC         1.2840   -0.0010    2.2620 o         1 23W     -0.542000
      5 CAG         3.5490    0.0030    1.3610 ce        1 23W     -0.175400
      6 CAA         4.1840    0.0070    2.5390 c2        1 23W     -0.105000
      7 CAE         4.2370    0.0010    0.0350 c3        1 23W      0.176600
      8 OAD         5.6420    0.0050    0.2450 oh        1 23W     -0.605800
      9 H1         -0.2890    0.9080    0.4320 h1        1 23W      0.051700
     10 H2         -0.0570   -0.0080   -1.1550 h1        1 23W      0.051700
     11 H3         -0.2850   -0.9210    0.4340 h1        1 23W      0.051700
     12 H4          3.6390    0.0080    3.4940 ha        1 23W      0.141000
     13 H5          5.2830    0.0090    2.5970 ha        1 23W      0.141000
     14 H6          3.9360   -0.9160   -0.5440 h1        1 23W      0.044700
     15 H7          3.9320    0.9130   -0.5490 h1        1 23W      0.044700
     16 H8          6.0430    0.0040   -0.6320 ho        1 23W      0.408000
@<TRIPOS>BOND
     1    1    2 1   
     2    1    9 1   
     3    1   10 1   
     4    1   11 1   
     5    2    3 1   
     6    3    4 2   
     7    3    5 1   
     8    5    6 2   
     9    5    7 1   
    10    6   12 1   
    11    6   13 1   
    12    7    8 1   
    13    7   14 1   
    14    7   15 1   
    15    8   16 1   
@<TRIPOS>SUBSTRUCTURE
     1 23W         1 TEMP              0 ****  ****    0 ROOT
