@<TRIPOS>MOLECULE
molecule
   16    15     1     0     0
SMALL
bcc


@<TRIPOS>ATOM
      1 CAB          0.0000     0.0000     0.0000 c3         1 23W       0.139700
      2 OAF          1.4520     0.0000     0.0000 os         1 23W      -0.431900
      3 CAH          2.0640     0.0000     1.2010 c          1 23W       0.646300
      4 OAC          1.4030     0.0000     2.2200 o          1 23W      -0.550000
      5 CAG          3.5320    -0.0000     1.2770 ce         1 23W      -0.192400
      6 CAA          4.1370    -0.0000     2.4620 c2         1 23W      -0.100000
      7 CAE          4.3520    -0.0000     0.0130 c3         1 23W       0.187600
      8 OAD          5.7410    -0.0000     0.3460 oh         1 23W      -0.618800
      9 H1          -0.3610     0.8850     0.5110 h1         1 23W       0.049367
     10 H2          -0.3610     0.0000    -1.0210 h1         1 23W       0.049367
     11 H3          -0.3610    -0.8850     0.5110 h1         1 23W       0.049367
     12 H4           5.2180    -0.0000     2.5190 ha         1 23W       0.143000
     13 H5           3.5470     0.0000     3.3710 ha         1 23W       0.143000
     14 H6           4.1200    -0.8850    -0.5680 h1         1 23W       0.038700
     15 H7           4.1200     0.8850    -0.5680 h1         1 23W       0.038700
     16 H8           6.2540     0.0000    -0.4450 ho         1 23W       0.410000
@<TRIPOS>BOND
     1     6     5 2
     2     2     1 1
     3     2     3 1
     4     5     3 1
     5     5     7 1
     6     3     4 2
     7     7     8 1
     8     1     9 1
     9     1    10 1
    10     1    11 1
    11     6    12 1
    12     6    13 1
    13     7    14 1
    14     7    15 1
    15     8    16 1
@<TRIPOS>SUBSTRUCTURE
     1 23W         1 TEMP              0 ****  ****    0 ROOT
