@<TRIPOS>MOLECULE
molecule
   83    85     1     0     0
SMALL
bcc


@<TRIPOS>ATOM
      1 C27          0.0000     0.0000     0.0000 c          1 23X       0.660100
      2 O27          1.2130     0.0000     0.0000 o          1 23X      -0.622100
      3 C28         -0.7530     0.0000     1.3050 c3         1 23X      -0.167100
      4 N27         -0.6730    -0.0000    -1.1680 ns         1 23X      -0.567900
      5 C22          0.0580     0.0000    -2.4360 c3         1 23X       0.048700
      6 C21         -0.8050     0.6010    -3.5150 c          1 23X       0.652100
      7 O22         -1.9230     0.9910    -3.2500 o          1 23X      -0.598100
      8 C23          0.4230    -1.4370    -2.8150 c3         1 23X      -0.083700
      9 C25         -0.8560    -2.2640    -2.9640 c3         1 23X      -0.082400
     10 C24          1.2990    -2.0470    -1.7200 c3         1 23X      -0.091100
     11 C26         -0.5010    -3.6670    -3.4630 c3         1 23X      -0.092100
     12 N11         -1.3360     0.6600    -9.5560 n3         1 23X      -0.811500
     13 C12         -0.2260     1.2040   -10.3420 c3         1 23X       0.235800
     14 C13         -0.7370     2.3420   -11.2260 c3         1 23X      -0.091700
     15 C14         -1.2000     3.5040   -10.3460 c3         1 23X      -0.092100
     16 C15          0.3880     2.8180   -12.1490 c3         1 23X      -0.077400
     17 C17         -0.7340     0.7550    -7.1870 c3         1 23X       0.107100
     18 C18         -0.1560     3.8690   -13.1170 c3         1 23X      -0.090100
     19 O18          0.5930     1.2080    -7.4680 oh         1 23X      -0.601800
     20 C19         -1.1760     1.2880    -5.8230 c3         1 23X       0.107700
     21 N20         -0.3360     0.7050    -4.7740 ns         1 23X      -0.579900
     22 C32         -1.0350     2.8110    -5.8010 c3         1 23X      -0.047100
     23 C33         -0.7560     3.4860    -3.4070 ca         1 23X      -0.118000
     24 C34         -1.2620     3.9780    -2.2180 ca         1 23X      -0.119500
     25 C35         -2.5940     4.3320    -2.1260 ca         1 23X      -0.127000
     26 C36         -3.4230     4.1940    -3.2240 ca         1 23X      -0.119500
     27 C37         -2.9190     3.7020    -4.4130 ca         1 23X      -0.118000
     28 C38         -1.5850     3.3480    -4.5050 ca         1 23X      -0.072300
     29 C1          -0.1490    -5.8020    -6.8270 cc         1 23X       0.417100
     30 N1           0.3550    -5.4810    -7.9590 nd         1 23X      -0.583100
     31 S1          -1.3730    -4.7120    -6.3560 ss         1 23X      -0.081100
     32 C2          -0.1310    -4.3870    -8.5760 ca         1 23X       0.163400
     33 C3          -1.1450    -3.7770    -7.8310 ca         1 23X      -0.096100
     34 C4          -1.7740    -2.6290    -8.3080 ca         1 23X       0.023000
     35 C5          -1.3980    -2.0910    -9.5180 ca         1 23X      -0.313500
     36 C6          -0.3930    -2.6920   -10.2620 ca         1 23X      -0.044000
     37 C7           0.2330    -3.8140    -9.8110 ca         1 23X      -0.092000
     38 S8          -2.1930    -0.6390   -10.1200 sy         1 23X       1.420200
     39 O9          -2.0250    -0.6470   -11.5320 o          1 23X      -0.630300
     40 O10         -3.4650    -0.5870    -9.4900 o          1 23X      -0.630300
     41 H28         -1.5630    -0.7170     1.2550 hc         1 23X       0.062033
     42 H28A        -0.0800    -0.2710     2.1100 hc         1 23X       0.062033
     43 H28B        -1.1570     0.9880     1.4890 hc         1 23X       0.062033
     44 HN27        -1.6740     0.0240    -1.1680 hn         1 23X       0.337500
     45 H22          0.9630     0.5860    -2.3300 h1         1 23X       0.093700
     46 H23          0.9650    -1.4370    -3.7530 hc         1 23X       0.045700
     47 H25         -1.5160    -1.7840    -3.6750 hc         1 23X       0.046700
     48 H25A        -1.3520    -2.3380    -2.0030 hc         1 23X       0.046700
     49 H24          0.6790    -2.3340    -0.8790 hc         1 23X       0.046367
     50 H24A         2.0320    -1.3180    -1.3950 hc         1 23X       0.046367
     51 H24B         1.8080    -2.9210    -2.1090 hc         1 23X       0.046367
     52 H26         -1.3840    -4.1350    -3.8800 hc         1 23X       0.034367
     53 H26A        -0.1330    -4.2620    -2.6360 hc         1 23X       0.034367
     54 H26B         0.2650    -3.5950    -4.2250 hc         1 23X       0.034367
     55 H12          0.5390     1.5810    -9.6750 h1         1 23X       0.061200
     56 H12A         0.1920     0.4220   -10.9650 h1         1 23X       0.061200
     57 H13         -1.5690     1.9890   -11.8240 hc         1 23X       0.068700
     58 H14         -1.2710     4.4050   -10.9440 hc         1 23X       0.037033
     59 H14A        -2.1700     3.2740    -9.9240 hc         1 23X       0.037033
     60 H14B        -0.4850     3.6580    -9.5460 hc         1 23X       0.037033
     61 H15          1.1830     3.2510   -11.5540 hc         1 23X       0.041700
     62 H15A         0.7750     1.9760   -12.7100 hc         1 23X       0.041700
     63 H16         -2.7050     0.9960    -8.0090 h1         1 23X       0.084200
     64 H16A        -1.6070     2.3430    -8.3420 h1         1 23X       0.084200
     65 H17         -0.7500    -0.3280    -7.1730 h1         1 23X       0.040700
     66 H18         -1.2020     3.6680   -13.3190 hc         1 23X       0.035700
     67 H18A        -0.0570     4.8530   -12.6750 hc         1 23X       0.035700
     68 H18B         0.4040     3.8300   -14.0440 hc         1 23X       0.035700
     69 HO18         1.1820     0.4720    -7.4740 ho         1 23X       0.404000
     70 H19         -2.2110     1.0180    -5.6490 h1         1 23X       0.089700
     71 HN20         0.5980     0.4130    -4.9860 hn         1 23X       0.315500
     72 H32         -1.5860     3.2370    -6.6310 hc         1 23X       0.060700
     73 H32A         0.0110     3.0780    -5.8870 hc         1 23X       0.060700
     74 H33          0.2890     3.2090    -3.4780 ha         1 23X       0.123500
     75 H34         -0.6120     4.0870    -1.3570 ha         1 23X       0.126000
     76 H35         -2.9900     4.7170    -1.1940 ha         1 23X       0.125000
     77 H36         -4.4680     4.4710    -3.1520 ha         1 23X       0.126000
     78 H37         -3.5680     3.5930    -5.2740 ha         1 23X       0.123500
     79 H4          -2.5590    -2.1590    -7.7270 ha         1 23X       0.156000
     80 H6          -0.1020    -2.2630   -11.2130 ha         1 23X       0.157000
     81 H7           1.0160    -4.2700   -10.4060 ha         1 23X       0.154000
     82 C16         -1.6880     1.2650    -8.2690 c3         1 23X       0.213800
     83 H1           0.1610    -6.6600    -6.2440 h5         1 23X       0.074800
@<TRIPOS>BOND
     1    29    30 2
     2    29    31 1
     3    30    32 1
     4    31    33 1
     5    32    33 ar
     6    32    37 ar
     7    33    34 ar
     8    34    35 ar
     9    35    36 ar
    10    35    38 1
    11    36    37 ar
    12    38    39 2
    13    38    40 2
    14    38    12 1
    15    12    13 1
    16    12    82 1
    17    13    14 1
    18    14    15 1
    19    14    16 1
    20    16    18 1
    21    82    17 1
    22    17    19 1
    23    17    20 1
    24    20    21 1
    25    20    22 1
    26    21     6 1
    27     6     5 1
    28     6     7 2
    29     5     8 1
    30     5     4 1
    31     8    10 1
    32     8     9 1
    33     9    11 1
    34     1     4 1
    35     1     2 2
    36     1     3 1
    37    22    28 1
    38    23    24 ar
    39    23    28 ar
    40    24    25 ar
    41    25    26 ar
    42    26    27 ar
    43    27    28 ar
    44    29    83 1
    45    34    79 1
    46    36    80 1
    47    37    81 1
    48    13    55 1
    49    13    56 1
    50    14    57 1
    51    15    58 1
    52    15    59 1
    53    15    60 1
    54    16    61 1
    55    16    62 1
    56    82    63 1
    57    82    64 1
    58    17    65 1
    59    18    66 1
    60    18    67 1
    61    18    68 1
    62    19    69 1
    63    20    70 1
    64    21    71 1
    65     5    45 1
    66     8    46 1
    67    10    49 1
    68    10    50 1
    69    10    51 1
    70     9    47 1
    71     9    48 1
    72    11    52 1
    73    11    53 1
    74    11    54 1
    75     4    44 1
    76     3    41 1
    77     3    42 1
    78     3    43 1
    79    22    72 1
    80    22    73 1
    81    23    74 1
    82    24    75 1
    83    25    76 1
    84    26    77 1
    85    27    78 1
@<TRIPOS>SUBSTRUCTURE
     1 23X         1 TEMP              0 ****  ****    0 ROOT
