@<TRIPOS>MOLECULE
23X
   83    85     1     0     0
SMALL
bcc


@<TRIPOS>ATOM
      1 C27          0.0000     0.0000     0.0000 c          1 23X       0.572100
      2 O27          1.2130     0.0000     0.0000 o          1 23X      -0.662100
      3 C28         -0.7530     0.0000     1.3050 c3         1 23X      -0.064100
      4 N27         -0.6730    -0.0000    -1.1680 ns         1 23X      -0.173900
      5 C22          0.0580     0.0000    -2.4360 c3         1 23X      -0.051300
      6 C21         -0.8050     0.6010    -3.5150 c          1 23X       0.569100
      7 O22         -1.9230     0.9910    -3.2500 o          1 23X      -0.639100
      8 C23          0.4230    -1.4370    -2.8150 c3         1 23X      -0.059700
      9 C25         -0.8560    -2.2640    -2.9640 c3         1 23X      -0.036400
     10 C24          1.2990    -2.0470    -1.7200 c3         1 23X      -0.024100
     11 C26         -0.5010    -3.6670    -3.4630 c3         1 23X      -0.015100
     12 N11         -1.3360     0.6600    -9.5560 n3         1 23X      -0.517500
     13 C12         -0.2260     1.2040   -10.3420 c3         1 23X       0.226800
     14 C13         -0.7370     2.3420   -11.2260 c3         1 23X      -0.078700
     15 C14         -1.2000     3.5040   -10.3460 c3         1 23X      -0.013100
     16 C15          0.3880     2.8180   -12.1490 c3         1 23X      -0.020400
     17 C17         -0.7340     0.7550    -7.1870 c3         1 23X       0.148100
     18 C18         -0.1560     3.8690   -13.1170 c3         1 23X       0.002900
     19 O18          0.5930     1.2080    -7.4680 oh         1 23X      -0.580800
     20 C19         -1.1760     1.2880    -5.8230 c3         1 23X       0.002700
     21 N20         -0.3360     0.7050    -4.7740 ns         1 23X      -0.184900
     22 C32         -1.0350     2.8110    -5.8010 c3         1 23X       0.011900
     23 C33         -0.7560     3.4860    -3.4070 ca         1 23X      -0.094000
     24 C34         -1.2620     3.9780    -2.2180 ca         1 23X      -0.091000
     25 C35         -2.5940     4.3320    -2.1260 ca         1 23X      -0.100000
     26 C36         -3.4230     4.1940    -3.2240 ca         1 23X      -0.091000
     27 C37         -2.9190     3.7020    -4.4130 ca         1 23X      -0.094000
     28 C38         -1.5850     3.3480    -4.5050 ca         1 23X      -0.081300
     29 C1          -0.1490    -5.8020    -6.8270 cc         1 23X       0.435100
     30 N1           0.3550    -5.4810    -7.9590 nd         1 23X      -0.456100
     31 S1          -1.3730    -4.7120    -6.3560 ss         1 23X      -0.180100
     32 C2          -0.1310    -4.3870    -8.5760 ca         1 23X       0.111400
     33 C3          -1.1450    -3.7770    -7.8310 ca         1 23X      -0.070100
     34 C4          -1.7740    -2.6290    -8.3080 ca         1 23X       0.066000
     35 C5          -1.3980    -2.0910    -9.5180 ca         1 23X      -0.160500
     36 C6          -0.3930    -2.6920   -10.2620 ca         1 23X      -0.010000
     37 C7           0.2330    -3.8140    -9.8110 ca         1 23X      -0.070000
     38 S8          -2.1930    -0.6390   -10.1200 sy         1 23X       1.049200
     39 O9          -2.0250    -0.6470   -11.5320 o          1 23X      -0.581800
     40 O10         -3.4650    -0.5870    -9.4900 o          1 23X      -0.581800
     41 H28         -1.5630    -0.7170     1.2550 hc         1 23X       0.023367
     42 H28A        -0.0800    -0.2710     2.1100 hc         1 23X       0.023367
     43 H28B        -1.1570     0.9880     1.4890 hc         1 23X       0.023367
     44 HN27        -1.6740     0.0240    -1.1680 hn         1 23X       0.200500
     45 H22          0.9630     0.5860    -2.3300 h1         1 23X       0.067700
     46 H23          0.9650    -1.4370    -3.7530 hc         1 23X       0.023700
     47 H25         -1.5160    -1.7840    -3.6750 hc         1 23X       0.019700
     48 H25A        -1.3520    -2.3380    -2.0030 hc         1 23X       0.019700
     49 H24          0.6790    -2.3340    -0.8790 hc         1 23X       0.021700
     50 H24A         2.0320    -1.3180    -1.3950 hc         1 23X       0.021700
     51 H24B         1.8080    -2.9210    -2.1090 hc         1 23X       0.021700
     52 H26         -1.3840    -4.1350    -3.8800 hc         1 23X       0.009033
     53 H26A        -0.1330    -4.2620    -2.6360 hc         1 23X       0.009033
     54 H26B         0.2650    -3.5950    -4.2250 hc         1 23X       0.009033
     55 H12          0.5390     1.5810    -9.6750 h1         1 23X       0.029200
     56 H12A         0.1920     0.4220   -10.9650 h1         1 23X       0.029200
     57 H13         -1.5690     1.9890   -11.8240 hc         1 23X       0.050700
     58 H14         -1.2710     4.4050   -10.9440 hc         1 23X       0.009700
     59 H14A        -2.1700     3.2740    -9.9240 hc         1 23X       0.009700
     60 H14B        -0.4850     3.6580    -9.5460 hc         1 23X       0.009700
     61 H15          1.1830     3.2510   -11.5540 hc         1 23X       0.013200
     62 H15A         0.7750     1.9760   -12.7100 hc         1 23X       0.013200
     63 H16         -2.7050     0.9960    -8.0090 h1         1 23X       0.057200
     64 H16A        -1.6070     2.3430    -8.3420 h1         1 23X       0.057200
     65 H17         -0.7500    -0.3280    -7.1730 h1         1 23X       0.006700
     66 H18         -1.2020     3.6680   -13.3190 hc         1 23X       0.003367
     67 H18A        -0.0570     4.8530   -12.6750 hc         1 23X       0.003367
     68 H18B         0.4040     3.8300   -14.0440 hc         1 23X       0.003367
     69 HO18         1.1820     0.4720    -7.4740 ho         1 23X       0.390000
     70 H19         -2.2110     1.0180    -5.6490 h1         1 23X       0.068700
     71 HN20         0.5980     0.4130    -4.9860 hn         1 23X       0.176500
     72 H32         -1.5860     3.2370    -6.6310 hc         1 23X       0.033700
     73 H32A         0.0110     3.0780    -5.8870 hc         1 23X       0.033700
     74 H33          0.2890     3.2090    -3.4780 ha         1 23X       0.100000
     75 H34         -0.6120     4.0870    -1.3570 ha         1 23X       0.099000
     76 H35         -2.9900     4.7170    -1.1940 ha         1 23X       0.099000
     77 H36         -4.4680     4.4710    -3.1520 ha         1 23X       0.099000
     78 H37         -3.5680     3.5930    -5.2740 ha         1 23X       0.100000
     79 H4          -2.5590    -2.1590    -7.7270 ha         1 23X       0.131000
     80 H6          -0.1020    -2.2630   -11.2130 ha         1 23X       0.129000
     81 H7           1.0160    -4.2700   -10.4060 ha         1 23X       0.121000
     82 C16         -1.6880     1.2650    -8.2690 c3         1 23X       0.182800
     83 H1           0.1610    -6.6600    -6.2440 h5         1 23X       0.033800
@<TRIPOS>BOND
     1     1     2 2   
     2     1     3 1   
     3     1     4 1   
     4     3    41 1   
     5     3    42 1   
     6     3    43 1   
     7     4     5 1   
     8     4    44 1   
     9     5     6 1   
    10     5     8 1   
    11     5    45 1   
    12     6     7 2   
    13     6    21 1   
    14     8     9 1   
    15     8    10 1   
    16     8    46 1   
    17     9    11 1   
    18     9    47 1   
    19     9    48 1   
    20    10    49 1   
    21    10    50 1   
    22    10    51 1   
    23    11    52 1   
    24    11    53 1   
    25    11    54 1   
    26    12    13 1   
    27    12    38 1   
    28    12    82 1   
    29    13    14 1   
    30    13    55 1   
    31    13    56 1   
    32    14    15 1   
    33    14    16 1   
    34    14    57 1   
    35    15    58 1   
    36    15    59 1   
    37    15    60 1   
    38    16    18 1   
    39    16    61 1   
    40    16    62 1   
    41    17    19 1   
    42    17    20 1   
    43    17    65 1   
    44    17    82 1   
    45    18    66 1   
    46    18    67 1   
    47    18    68 1   
    48    19    69 1   
    49    20    21 1   
    50    20    22 1   
    51    20    70 1   
    52    21    71 1   
    53    22    28 1   
    54    22    72 1   
    55    22    73 1   
    56    23    24 ar  
    57    23    28 ar  
    58    23    74 1   
    59    24    25 ar  
    60    24    75 1   
    61    25    26 ar  
    62    25    76 1   
    63    26    27 ar  
    64    26    77 1   
    65    27    28 ar  
    66    27    78 1   
    67    29    30 2   
    68    29    31 1   
    69    29    83 1   
    70    30    32 1   
    71    31    33 1   
    72    32    33 ar  
    73    32    37 ar  
    74    33    34 ar  
    75    34    35 ar  
    76    34    79 1   
    77    35    36 ar  
    78    35    38 1   
    79    36    37 ar  
    80    36    80 1   
    81    37    81 1   
    82    38    39 2   
    83    38    40 2   
    84    63    82 1   
    85    64    82 1   
@<TRIPOS>SUBSTRUCTURE
     1 23X         1 TEMP              0 ****  ****    0 ROOT
