@<TRIPOS>MOLECULE
molecule
   85    89     1     0     0
SMALL
bcc


@<TRIPOS>ATOM
      1 C1           0.0000     0.0000     0.0000 c          1 23Z       0.665100
      2 O2           1.2130     0.0000     0.0000 o          1 23Z      -0.608100
      3 N3          -0.6740     0.0000     1.1680 n          1 23Z      -0.502800
      4 C4           0.0380    -0.1110     2.4490 c3         1 23Z       0.108000
      5 C5          -0.1620     1.1820     3.2490 c3         1 23Z      -0.036100
      6 C6          -1.6180     1.5700     3.1890 cc         1 23Z      -0.034600
      7 C7          -2.5010     1.1000     2.2750 cd         1 23Z      -0.332600
      8 C8          -2.1430     0.1170     1.1920 c3         1 23Z       0.188300
      9 C9          -3.7460     1.6890     2.5290 cd         1 23Z       0.394800
     10 N10         -3.6100     2.4860     3.5710 nc         1 23Z      -0.516800
     11 N11         -2.2760     2.4210     3.9990 na         1 23Z       0.080400
     12 C12         -1.6990     3.1510     5.1310 c3         1 23Z       0.060300
     13 C13         -1.1640     4.5000     4.6470 c3         1 23Z       0.122100
     14 O14         -0.0780     4.2850     3.7430 oh         1 23Z      -0.589800
     15 C15         -0.6750     5.3140     5.8470 c3         1 23Z       0.152800
     16 N16         -0.1270     6.5940     5.3790 n3         1 23Z      -0.714600
     17 C17          0.2710     7.4410     6.5110 c3         1 23Z       0.160800
     18 C18          0.9680     8.6990     5.9890 c3         1 23Z      -0.073900
     19 C19          0.0120     9.4620     5.0680 c3         1 23Z      -0.052700
     20 C20         -0.4240     8.5420     3.9240 c3         1 23Z      -0.073900
     21 C21         -1.0820     7.2880     4.5060 c3         1 23Z       0.160800
     22 C22          0.7250    10.6890     4.4930 c3         1 23Z       0.151800
     23 C23         -4.9970     1.4570     1.7640 ca         1 23Z      -0.058500
     24 C24         -4.9430     1.2460     0.3870 ca         1 23Z      -0.138000
     25 C25         -6.1070     1.0300    -0.3250 ca         1 23Z      -0.066000
     26 C26         -7.3270     1.0220     0.3230 ca         1 23Z      -0.169300
     27 C27         -7.3900     1.2320     1.6960 ca         1 23Z       0.056900
     28 C28         -6.2240     1.4440     2.4180 ca         1 23Z      -0.139000
     29 S29         -8.9480     1.2210     2.5190 ss         1 23Z      -0.117000
     30 C30         -8.4980     1.5330     4.2480 c3         1 23Z      -0.118300
     31 C31         -9.7440     1.5540     5.0960 c          1 23Z       0.579900
     32 O32        -10.8260     1.3780     4.5850 o          1 23Z      -0.525100
     33 N33         -9.6530     1.7700     6.4230 n          1 23Z      -0.046200
     34 C34        -10.7050     1.8140     7.3010 cc         1 23Z      -0.140800
     35 C35        -10.2150     2.0490     8.5310 cd         1 23Z      -0.184000
     36 C36         -8.8110     2.1560     8.4190 cd         1 23Z      -0.184000
     37 C37         -8.4930     1.9770     7.1230 cc         1 23Z      -0.140800
     38 C38         -8.5930     0.7870    -0.4610 c3         1 23Z       0.672200
     39 F39         -8.2780     0.6050    -1.8120 f          1 23Z      -0.216300
     40 F40         -9.2380    -0.3560     0.0280 f          1 23Z      -0.216300
     41 F41         -9.4380     1.8930    -0.3250 f          1 23Z      -0.216300
     42 O42          1.8690    10.2690     3.7490 oh         1 23Z      -0.599800
     43 C43         -0.7540     0.0070    -1.3050 c3         1 23Z      -0.170100
     44 C44         -0.2320    11.4490     3.5740 c3         1 23Z      -0.123100
     45 C45          1.1670    11.6020     5.6370 c3         1 23Z      -0.123100
     46 H4          -0.3990    -0.9280     3.0100 h1         1 23Z       0.072200
     47 H4A          1.0960    -0.2190     2.2400 h1         1 23Z       0.072200
     48 H5           0.0940     0.9840     4.2830 hc         1 23Z       0.076700
     49 H5A          0.4190     1.9660     2.7780 hc         1 23Z       0.076700
     50 H8          -2.5610    -0.8480     1.4530 h1         1 23Z       0.059200
     51 H8A         -2.4720     0.5180     0.2410 h1         1 23Z       0.059200
     52 H12         -2.4620     3.3130     5.8830 h1         1 23Z       0.075700
     53 H12A        -0.8880     2.5730     5.5580 h1         1 23Z       0.075700
     54 H13         -1.9540     5.0420     4.1410 h1         1 23Z       0.054700
     55 HO14        -0.2810     4.6760     2.9090 ho         1 23Z       0.412000
     56 H15         -1.5030     5.5000     6.5200 h1         1 23Z       0.041700
     57 H15A         0.0970     4.7600     6.3690 h1         1 23Z       0.041700
     58 H17         -0.6090     7.7250     7.0750 h1         1 23Z       0.030450
     59 H17A         0.9530     6.8910     7.1490 h1         1 23Z       0.030450
     60 H18          1.2450     9.3310     6.8240 hc         1 23Z       0.059950
     61 H18A         1.8550     8.4160     5.4330 hc         1 23Z       0.059950
     62 H19         -0.8580     9.7740     5.6310 hc         1 23Z       0.050700
     63 H20          0.4430     8.2560     3.3400 hc         1 23Z       0.059950
     64 H20A        -1.1350     9.0620     3.2940 hc         1 23Z       0.059950
     65 H21         -1.9540     7.5740     5.0820 h1         1 23Z       0.030450
     66 H21A        -1.3760     6.6290     3.6990 h1         1 23Z       0.030450
     67 H24         -3.9890     1.2520    -0.1250 ha         1 23Z       0.144000
     68 H25         -6.0630     0.8660    -1.3950 ha         1 23Z       0.155000
     69 H28         -6.2710     1.6080     3.4880 ha         1 23Z       0.147000
     70 H30         -7.9940     2.4880     4.3240 h1         1 23Z       0.093700
     71 H30A        -7.8380     0.7470     4.5970 h1         1 23Z       0.093700
     72 H34        -11.7500     1.6820     7.0480 h4         1 23Z       0.179000
     73 H35        -10.7920     2.1420     9.4430 ha         1 23Z       0.155500
     74 H36         -8.1160     2.3430     9.2280 ha         1 23Z       0.155500
     75 H37         -7.4940     1.9980     6.7050 h4         1 23Z       0.179000
     76 HO42         2.3180    11.0260     3.4100 ho         1 23Z       0.402000
     77 H43         -1.5230    -0.7560    -1.2820 hc         1 23Z       0.061367
     78 H43A        -0.0690    -0.1960    -2.1190 hc         1 23Z       0.061367
     79 H43B        -1.2130     0.9770    -1.4520 hc         1 23Z       0.061367
     80 H44         -0.3010    10.9370     2.6210 hc         1 23Z       0.042700
     81 H44A         0.1390    12.4540     3.4170 hc         1 23Z       0.042700
     82 H44B        -1.2140    11.4940     4.0310 hc         1 23Z       0.042700
     83 H45          2.0530    11.1920     6.1050 hc         1 23Z       0.042700
     84 H45A         1.3890    12.5880     5.2470 hc         1 23Z       0.042700
     85 H45B         0.3720    11.6750     6.3700 hc         1 23Z       0.042700
@<TRIPOS>BOND
     1     1     2 2   
     2     1     3 1   
     3     1    43 1   
     4     3     4 1   
     5     3     8 1   
     6     4     5 1   
     7     5     6 1   
     8     6     7 2   
     9     6    11 1   
    10     7     8 1   
    11     7     9 1   
    12     9    10 2   
    13     9    23 1   
    14    10    11 1   
    15    11    12 1   
    16    12    13 1   
    17    13    14 1   
    18    13    15 1   
    19    15    16 1   
    20    16    17 1   
    21    16    21 1   
    22    17    18 1   
    23    18    19 1   
    24    19    20 1   
    25    19    22 1   
    26    20    21 1   
    27    22    42 1   
    28    22    44 1   
    29    22    45 1   
    30    23    24 ar  
    31    23    28 ar  
    32    24    25 ar  
    33    25    26 ar  
    34    26    27 ar  
    35    26    38 1   
    36    27    28 ar  
    37    27    29 1   
    38    29    30 1   
    39    30    31 1   
    40    31    32 2   
    41    31    33 1   
    42    33    34 1   
    43    33    37 1   
    44    34    35 2   
    45    35    36 1   
    46    36    37 2   
    47    38    39 1   
    48    38    40 1   
    49    38    41 1   
    50     4    46 1   
    51     4    47 1   
    52     5    48 1   
    53     5    49 1   
    54     8    50 1   
    55     8    51 1   
    56    12    52 1   
    57    12    53 1   
    58    13    54 1   
    59    14    55 1   
    60    15    56 1   
    61    15    57 1   
    62    17    58 1   
    63    17    59 1   
    64    18    60 1   
    65    18    61 1   
    66    19    62 1   
    67    20    63 1   
    68    20    64 1   
    69    21    65 1   
    70    21    66 1   
    71    24    67 1   
    72    25    68 1   
    73    28    69 1   
    74    30    70 1   
    75    30    71 1   
    76    34    72 1   
    77    35    73 1   
    78    36    74 1   
    79    37    75 1   
    80    42    76 1   
    81    43    77 1   
    82    43    78 1   
    83    43    79 1   
    84    44    80 1   
    85    44    81 1   
    86    44    82 1   
    87    45    83 1   
    88    45    84 1   
    89    45    85 1   
@<TRIPOS>SUBSTRUCTURE
     1 23Z         1 TEMP              0 ****  ****    0 ROOT
