@<TRIPOS>MOLECULE
molecule
   61    64     1     0     0
SMALL
bcc


@<TRIPOS>ATOM
      1 OAD          0.0000     0.0000     0.0000 o          1 240      -0.826800
      2 CAY          1.3420     0.0000     0.0000 c          1 240       0.901600
      3 OAF          1.9460     0.0010    -1.0470 o          1 240      -0.826800
      4 CBJ          2.0970     0.0000     1.3050 c3         1 240       0.023100
      5 CAC          1.8230     1.3060     2.0510 c3         1 240      -0.099100
      6 OAW          3.4970    -0.1160     1.0460 os         1 240      -0.281900
      7 CBF          4.2660    -0.6380     2.0360 ca         1 240       0.178100
      8 CAO          3.7070    -0.9210     3.2750 ca         1 240      -0.228000
      9 CAK          4.4910    -1.4520     4.2800 ca         1 240      -0.097000
     10 CAJ          5.8330    -1.7000     4.0550 ca         1 240      -0.200000
     11 CAN          6.3920    -1.4170     2.8230 ca         1 240      -0.099000
     12 CBE          5.6110    -0.8940     1.8110 ca         1 240      -0.130300
     13 CAU          6.2200    -0.5930     0.4650 c3         1 240       0.049100
     14 CBG          6.6350     0.8550     0.4140 cc         1 240      -0.097400
     15 CBA          7.8280     1.3530     0.7680 cd         1 240      -0.030600
     16 CAB          8.9850     0.5410     1.2900 c3         1 240      -0.028900
     17 CBH          5.8120     1.9810    -0.0390 ca         1 240      -0.067800
     18 CAT          4.5080     2.0920    -0.5230 ca         1 240      -0.012000
     19 CBC          4.0140     3.3340    -0.8730 ca         1 240       0.101100
     20 OAX          2.7440     3.4490    -1.3460 os         1 240      -0.289900
     21 CBL          2.2950     4.7610    -1.6890 c3         1 240       0.788700
     22 FAG          0.9770     4.6970    -2.1530 f          1 240      -0.214967
     23 FAI          2.3520     5.5840    -0.5590 f          1 240      -0.214967
     24 FAH          3.1180     5.2870    -2.6910 f          1 240      -0.214967
     25 CAR          4.8110     4.4680    -0.7450 ca         1 240      -0.193000
     26 CAS          6.0990     4.3680    -0.2670 ca         1 240      -0.131000
     27 CBI          6.6140     3.1280     0.0900 ca         1 240      -0.017400
     28 NBK          7.8390     2.7150     0.5850 n          1 240      -0.272200
     29 CAZ          8.8850     3.5240     0.8440 c          1 240       0.723700
     30 OAE          9.6500     3.8320    -0.0480 o          1 240      -0.527100
     31 CBD          9.1000     4.0370     2.2090 ca         1 240      -0.218600
     32 CAQ          8.1610     3.7760     3.2120 ca         1 240      -0.031500
     33 CAM          8.3660     4.2560     4.4860 ca         1 240      -0.210500
     34 CAP         10.2450     4.7800     2.5070 ca         1 240      -0.031500
     35 CAL         10.4430     5.2570     3.7830 ca         1 240      -0.210500
     36 CBB          9.5030     5.0000     4.7750 ca         1 240       0.167100
     37 OAV          9.7010     5.4720     6.0330 os         1 240      -0.325900
     38 CAA         10.8920     6.2300     6.2610 c3         1 240       0.128700
     39 HBJ          1.7710    -0.8370     1.9100 h1         1 240       0.038700
     40 HAC1         2.7630     1.7650     2.3320 hc         1 240       0.033033
     41 HAC2         1.2420     1.0990     2.9420 hc         1 240       0.033033
     42 HAC3         1.2700     1.9810     1.4080 hc         1 240       0.033033
     43 HAO          2.6560    -0.7270     3.4520 ha         1 240       0.150000
     44 HAK          4.0550    -1.6730     5.2470 ha         1 240       0.114000
     45 HAJ          6.4460    -2.1130     4.8470 ha         1 240       0.110000
     46 HAN          7.4430    -1.6150     2.6480 ha         1 240       0.113000
     47 HAU1         7.0880    -1.2240     0.3120 hc         1 240       0.061700
     48 HAU2         5.4910    -0.7870    -0.3120 hc         1 240       0.061700
     49 HAB1         8.9730    -0.4410     0.8330 hc         1 240       0.047700
     50 HAB2         8.9000     0.4400     2.3650 hc         1 240       0.047700
     51 HAB3         9.9160     1.0410     1.0470 hc         1 240       0.047700
     52 HAT          4.3510     1.4460    -1.3780 ha         1 240       0.180000
     53 HAR          4.5920     5.4720    -1.0880 ha         1 240       0.144000
     54 HAS          6.7840     5.2040    -0.3460 ha         1 240       0.126000
     55 HAQ          7.2520     3.2360     2.9760 ha         1 240       0.158500
     56 HAM          7.6390     4.0540     5.2630 ha         1 240       0.144000
     57 HAP         10.9630     5.0050     1.7280 ha         1 240       0.158500
     58 HAL         11.3310     5.8320     4.0150 ha         1 240       0.144000
     59 HAA1        10.8960     7.1000     5.6160 h1         1 240       0.041367
     60 HAA2        11.7570     5.6150     6.0450 h1         1 240       0.041367
     61 HAA3        10.9240     6.5480     7.2960 h1         1 240       0.041367
@<TRIPOS>BOND
     1     1     2 1
     2     2     3 1
     3     2     4 1
     4     4     5 1
     5     4     6 1
     6     4    39 1
     7     5    40 1
     8     5    41 1
     9     5    42 1
    10     6     7 1
    11     7     8 ar
    12     7    12 ar
    13     8     9 ar
    14     8    43 1
    15     9    10 ar
    16     9    44 1
    17    10    11 ar
    18    10    45 1
    19    11    12 ar
    20    11    46 1
    21    12    13 1
    22    13    14 1
    23    13    47 1
    24    13    48 1
    25    14    15 2
    26    14    17 1
    27    15    16 1
    28    15    28 1
    29    16    49 1
    30    16    50 1
    31    16    51 1
    32    17    27 ar
    33    17    18 ar
    34    18    19 ar
    35    18    52 1
    36    19    25 ar
    37    19    20 1
    38    20    21 1
    39    21    24 1
    40    21    23 1
    41    21    22 1
    42    25    26 ar
    43    25    53 1
    44    26    27 ar
    45    26    54 1
    46    27    28 1
    47    28    29 1
    48    29    31 1
    49    29    30 2
    50    31    34 ar
    51    31    32 ar
    52    32    33 ar
    53    32    55 1
    54    33    36 ar
    55    33    56 1
    56    34    35 ar
    57    34    57 1
    58    35    36 ar
    59    35    58 1
    60    36    37 1
    61    37    38 1
    62    38    59 1
    63    38    60 1
    64    38    61 1
@<TRIPOS>SUBSTRUCTURE
     1 240         1 TEMP              0 ****  ****    0 ROOT
