@<TRIPOS>MOLECULE
240
   61    64     1     0     0
SMALL
bcc


@<TRIPOS>ATOM
      1 OAD         1.9100   -2.0840   -1.1160 o         1 240     -0.826300
      2 CAY         2.6040   -1.1550   -0.6250 c         1 240      0.914600
      3 OAF         3.6350   -0.6600   -1.1590 o         1 240     -0.826300
      4 CBJ         2.1320   -0.6110    0.7530 c3        1 240      0.006100
      5 CAC         0.8290    0.1460    0.6250 c3        1 240     -0.091100
      6 OAW         3.1220    0.3250    1.2480 os        1 240     -0.333900
      7 CBF         3.8080   -0.0840    2.3660 ca        1 240      0.156100
      8 CAO         3.1380   -0.4070    3.5570 ca        1 240     -0.184000
      9 CAK         3.8680   -0.7060    4.7030 ca        1 240     -0.120000
     10 CAJ         5.2620   -0.6890    4.6690 ca        1 240     -0.174000
     11 CAN         5.9270   -0.3830    3.4830 ca        1 240     -0.122000
     12 CBE         5.2200   -0.0850    2.3150 ca        1 240     -0.084300
     13 CAU         5.9260    0.1660    1.0250 c3        1 240     -0.007900
     14 CBG         6.3240    1.5730    0.8390 cc        1 240     -0.034400
     15 CBA         7.4230    2.2330    1.3760 cd        1 240     -0.059600
     16 CAB         8.4820    1.6280    2.2040 c3        1 240     -0.035900
     17 CBH         5.6120    2.5200   -0.0070 ca        1 240     -0.083800
     18 CAT         4.4710    2.3960   -0.7980 ca        1 240     -0.027000
     19 CBC         4.0720    3.5370   -1.5020 ca        1 240      0.032100
     20 OAX         3.0280    3.4190   -2.4260 os        1 240     -0.350900
     21 CBL         1.7740    3.9030   -2.0420 c3        1 240      0.813700
     22 FAG         0.9360    3.5800   -3.0600 f         1 240     -0.226633
     23 FAI         1.3040    3.3660   -0.8900 f         1 240     -0.226633
     24 FAH         1.7760    5.2590   -1.9120 f         1 240     -0.226633
     25 CAR         4.7580    4.7640   -1.4310 ca        1 240     -0.119000
     26 CAS         5.8980    4.8920   -0.6480 ca        1 240     -0.142000
     27 CBI         6.3300    3.7660    0.0650 ca        1 240      0.013600
     28 NBK         7.4330    3.5980    0.9410 n         1 240     -0.254200
     29 CAZ         8.3200    4.6150    1.2960 c         1 240      0.694700
     30 OAE         8.4050    5.6490    0.6060 o         1 240     -0.576100
     31 CBD         9.1460    4.4750    2.5280 ca        1 240     -0.164600
     32 CAQ         8.5420    4.2790    3.7770 ca        1 240     -0.056000
     33 CAM         9.3160    4.2490    4.9310 ca        1 240     -0.190500
     34 CAP        10.5300    4.6460    2.4370 ca        1 240     -0.056000
     35 CAL        11.3220    4.6060    3.5840 ca        1 240     -0.190500
     36 CBB        10.7110    4.4100    4.8280 ca        1 240      0.136100
     37 OAV        11.3890    4.3600    6.0310 os        1 240     -0.326900
     38 CAA        12.8020    4.5070    5.9610 c3        1 240      0.113700
     39 HBJ         2.0180   -1.4740    1.4590 h1        1 240      0.041700
     40 HAC1        0.1140   -0.4800    0.0380 hc        1 240      0.034700
     41 HAC2        0.3960    0.3690    1.6290 hc        1 240      0.034700
     42 HAC3        0.9950    1.1120    0.0880 hc        1 240      0.034700
     43 HAO         2.0390   -0.4180    3.5680 ha        1 240      0.137000
     44 HAK         3.3440   -0.9560    5.6360 ha        1 240      0.114000
     45 HAJ         5.8380   -0.9250    5.5740 ha        1 240      0.113000
     46 HAN         7.0270   -0.3840    3.4590 ha        1 240      0.116000
     47 HAU1        5.2290   -0.1340    0.1750 hc        1 240      0.099200
     48 HAU2        6.8380   -0.4910    0.9700 hc        1 240      0.099200
     49 HAB1        8.5000    0.5230    2.0200 hc        1 240      0.048367
     50 HAB2        9.4920    2.0430    1.9600 hc        1 240      0.048367
     51 HAB3        8.2800    1.8020    3.2920 hc        1 240      0.048367
     52 HAT         3.9220    1.4260   -0.8650 ha        1 240      0.245000
     53 HAR         4.3800    5.6220   -2.0070 ha        1 240      0.139000
     54 HAS         6.4480    5.8420   -0.5950 ha        1 240      0.157000
     55 HAQ         7.4500    4.1490    3.8460 ha        1 240      0.153000
     56 HAM         8.8580    4.1000    5.9190 ha        1 240      0.145000
     57 HAP        10.9930    4.8210    1.4530 ha        1 240      0.153000
     58 HAL        12.4090    4.7340    3.4970 ha        1 240      0.145000
     59 HAA1       13.2550    3.6890    5.3500 h1        1 240      0.043367
     60 HAA2       13.1260    4.4270    7.0300 h1        1 240      0.043367
     61 HAA3       13.0750    5.5060    5.5410 h1        1 240      0.043367
@<TRIPOS>BOND
     1    1    2 1   
     2    2    3 1   
     3    2    4 1   
     4    4    5 1   
     5    4    6 1   
     6    4   39 1   
     7    5   40 1   
     8    5   41 1   
     9    5   42 1   
    10    6    7 1   
    11    7    8 ar  
    12    7   12 ar  
    13    8    9 ar  
    14    8   43 1   
    15    9   10 ar  
    16    9   44 1   
    17   10   11 ar  
    18   10   45 1   
    19   11   12 ar  
    20   11   46 1   
    21   12   13 1   
    22   13   14 1   
    23   13   47 1   
    24   13   48 1   
    25   14   15 2   
    26   14   17 1   
    27   15   16 1   
    28   15   28 1   
    29   16   49 1   
    30   16   50 1   
    31   16   51 1   
    32   17   18 ar  
    33   17   27 ar  
    34   18   19 ar  
    35   18   52 1   
    36   19   20 1   
    37   19   25 ar  
    38   20   21 1   
    39   21   22 1   
    40   21   23 1   
    41   21   24 1   
    42   25   26 ar  
    43   25   53 1   
    44   26   27 ar  
    45   26   54 1   
    46   27   28 1   
    47   28   29 1   
    48   29   30 2   
    49   29   31 1   
    50   31   32 ar  
    51   31   34 ar  
    52   32   33 ar  
    53   32   55 1   
    54   33   36 ar  
    55   33   56 1   
    56   34   35 ar  
    57   34   57 1   
    58   35   36 ar  
    59   35   58 1   
    60   36   37 1   
    61   37   38 1   
    62   38   59 1   
    63   38   60 1   
    64   38   61 1   
@<TRIPOS>SUBSTRUCTURE
     1 240         1 TEMP              0 ****  ****    0 ROOT
