@<TRIPOS>MOLECULE
241
   61    64     1     0     0
SMALL
bcc


@<TRIPOS>ATOM
      1 CAA        -0.1020   -2.4750    0.1990 c3        1 241      0.115700
      2 OAV         1.2790   -2.2100   -0.0010 os        1 241     -0.318900
      3 CBC         1.9190   -1.5180    1.0110 ca        1 241      0.134100
      4 CAM         1.2570   -0.9450    2.1070 ca        1 241     -0.181500
      5 CAO         1.9980   -0.2490    3.0570 ca        1 241     -0.045500
      6 CAN         3.3120   -1.3990    0.8670 ca        1 241     -0.181500
      7 CAP         4.0390   -0.7000    1.8250 ca        1 241     -0.045500
      8 CBF         3.3880   -0.1290    2.9270 ca        1 241     -0.203600
      9 CAZ         4.0980    0.6890    3.9360 c         1 241      0.712700
     10 OAE         3.5760    1.7170    4.4070 o         1 241     -0.587100
     11 NBK         5.3930    0.3370    4.3740 n         1 241     -0.255200
     12 CBB         6.0150   -0.9450    4.4070 cc        1 241      0.055400
     13 CAB         5.3680   -2.2000    3.9840 c3        1 241     -0.091900
     14 CBI         6.3000    1.2650    4.9370 ca        1 241      0.013600
     15 CAR         6.1800    2.6450    5.1540 ca        1 241     -0.111000
     16 CAQ         7.2550    3.3180    5.7190 ca        1 241     -0.136000
     17 CBE         8.4300    2.6210    6.0560 ca        1 241      0.041100
     18 OAX         9.4410    3.2890    6.7590 os        1 241     -0.367900
     19 CBL        10.2920    4.1230    6.0270 c3        1 241      0.813700
     20 FAI        10.9360    3.4820    5.0210 f         1 241     -0.225633
     21 FAG         9.6430    5.2020    5.5160 f         1 241     -0.225633
     22 FAH        11.2130    4.5620    6.9250 f         1 241     -0.225633
     23 CAT         8.5860    1.2510    5.8400 ca        1 241     -0.078000
     24 CBH         7.5130    0.5620    5.2850 ca        1 241     -0.062800
     25 CBG         7.3000   -0.8300    4.9430 cd        1 241     -0.143400
     26 CAU         8.2870   -1.9050    5.1520 c3        1 241      0.044100
     27 CBA         9.1510   -2.1380    3.9550 ca        1 241     -0.076300
     28 CAS         8.6760   -2.9250    2.9040 ca        1 241     -0.136000
     29 CAK        10.4300   -1.5750    3.8800 ca        1 241     -0.150000
     30 CAJ        11.2260   -1.7900    2.7570 ca        1 241     -0.134000
     31 CAL        10.7560   -2.5550    1.6910 ca        1 241     -0.160000
     32 CBD         9.4750   -3.1220    1.7690 ca        1 241      0.133100
     33 OAW         9.0710   -3.9730    0.7560 os        1 241     -0.357900
     34 CBJ         8.0620   -3.4300   -0.1290 c3        1 241      0.037100
     35 CAC         7.8220   -4.5210   -1.1540 c3        1 241     -0.079100
     36 CAY         6.7360   -3.0600    0.5660 c         1 241      0.892600
     37 OAD         6.2150   -1.9490    0.2530 o         1 241     -0.844300
     38 OAF         6.2020   -3.8570    1.3900 o         1 241     -0.844300
     39 HAA1       -0.2690   -3.0380    1.1490 h1        1 241      0.037033
     40 HAA2       -0.3800   -3.1040   -0.6850 h1        1 241      0.037033
     41 HAA3       -0.6890   -1.5240    0.2030 h1        1 241      0.037033
     42 HAM         0.1700   -1.0350    2.2270 ha        1 241      0.165500
     43 HAO         1.4910    0.2210    3.9150 ha        1 241      0.171000
     44 HAN         3.8530   -1.8760    0.0290 ha        1 241      0.165500
     45 HAP         5.1380   -0.6340    1.6850 ha        1 241      0.171000
     46 HAB1        4.2570   -2.1630    4.0940 hc        1 241      0.085033
     47 HAB2        5.7610   -3.0440    4.6060 hc        1 241      0.085033
     48 HAB3        5.6130   -2.4370    2.9030 hc        1 241      0.085033
     49 HAR         5.2540    3.1790    4.8910 ha        1 241      0.165000
     50 HAQ         7.2010    4.4010    5.9040 ha        1 241      0.142000
     51 HAT         9.5210    0.7360    6.1010 ha        1 241      0.150000
     52 HAU1        8.9320   -1.6370    6.0340 hc        1 241      0.046700
     53 HAU2        7.7520   -2.8620    5.4060 hc        1 241      0.046700
     54 HAS         7.6670   -3.3790    2.9340 ha        1 241      0.192000
     55 HAK        10.8040   -0.9540    4.7060 ha        1 241      0.114000
     56 HAJ        12.2290   -1.3440    2.7050 ha        1 241      0.113000
     57 HAL        11.3730   -2.7230    0.7990 ha        1 241      0.129000
     58 HBJ         8.4930   -2.5120   -0.6140 h1        1 241      0.035700
     59 HAC1        7.1210   -4.1350   -1.9310 hc        1 241      0.034033
     60 HAC2        7.3660   -5.4100   -0.6570 hc        1 241      0.034033
     61 HAC3        8.7800   -4.8280   -1.6370 hc        1 241      0.034033
@<TRIPOS>BOND
     1    1    2 1   
     2    1   39 1   
     3    1   40 1   
     4    1   41 1   
     5    2    3 1   
     6    3    4 ar  
     7    3    6 ar  
     8    4    5 ar  
     9    4   42 1   
    10    5    8 ar  
    11    5   43 1   
    12    6    7 ar  
    13    6   44 1   
    14    7    8 ar  
    15    7   45 1   
    16    8    9 1   
    17    9   10 2   
    18    9   11 1   
    19   11   12 1   
    20   11   14 1   
    21   12   13 1   
    22   12   25 2   
    23   13   46 1   
    24   13   47 1   
    25   13   48 1   
    26   14   15 ar  
    27   14   24 ar  
    28   15   16 ar  
    29   15   49 1   
    30   16   17 ar  
    31   16   50 1   
    32   17   18 1   
    33   17   23 ar  
    34   18   19 1   
    35   19   20 1   
    36   19   21 1   
    37   19   22 1   
    38   23   24 ar  
    39   23   51 1   
    40   24   25 1   
    41   25   26 1   
    42   26   27 1   
    43   26   52 1   
    44   26   53 1   
    45   27   28 ar  
    46   27   29 ar  
    47   28   32 ar  
    48   28   54 1   
    49   29   30 ar  
    50   29   55 1   
    51   30   31 ar  
    52   30   56 1   
    53   31   32 ar  
    54   31   57 1   
    55   32   33 1   
    56   33   34 1   
    57   34   35 1   
    58   34   36 1   
    59   34   58 1   
    60   35   59 1   
    61   35   60 1   
    62   35   61 1   
    63   36   37 1   
    64   36   38 1   
@<TRIPOS>SUBSTRUCTURE
     1 241         1 TEMP              0 ****  ****    0 ROOT
