@<TRIPOS>MOLECULE
molecule
   61    64     1     0     0
SMALL
bcc


@<TRIPOS>ATOM
      1 CAA          0.0000     0.0000     0.0000 c3         1 241       0.127700
      2 OAV          1.4300     0.0000     0.0000 os         1 241      -0.315900
      3 CBC          2.0450     0.0000     1.2090 ca         1 241       0.179100
      4 CAM          1.2860    -0.0070     2.3750 ca         1 241      -0.206000
      5 CAO          1.9070    -0.0070     3.6030 ca         1 241      -0.030000
      6 CAN          3.4340     0.0010     1.2800 ca         1 241      -0.206000
      7 CAP          4.0620    -0.0010     2.5050 ca         1 241      -0.030000
      8 CBF          3.3030    -0.0010     3.6780 ca         1 241      -0.229600
      9 CAZ          3.9730    -0.0020     4.9930 c          1 241       0.718700
     10 OAE          3.3140     0.0910     6.0100 o          1 241      -0.525100
     11 NBK          5.3140    -0.1030     5.0650 n          1 241      -0.263200
     12 CBB          6.0200    -1.2820     5.0480 cc         1 241       0.013400
     13 CAB          5.4080    -2.6550     4.9430 c3         1 241      -0.038900
     14 CBI          6.1910     0.9630     5.1630 ca         1 241      -0.001400
     15 CAR          6.0150     2.3400     5.2150 ca         1 241      -0.099000
     16 CAQ          7.1100     3.1710     5.3140 ca         1 241      -0.186000
     17 CBE          8.3970     2.6450     5.3650 ca         1 241       0.087100
     18 OAX          9.4660     3.4780     5.4630 os         1 241      -0.338900
     19 CBL          9.1950     4.8800     5.5090 c3         1 241       0.794700
     20 FAI          8.5250     5.2640     4.3430 f          1 241      -0.209633
     21 FAG          8.3940     5.1630     6.6220 f          1 241      -0.209633
     22 FAH         10.3990     5.5850     5.6100 f          1 241      -0.209633
     23 CAT          8.5910     1.2770     5.3160 ca         1 241      -0.087000
     24 CBH          7.4890     0.4280     5.2140 ca         1 241      -0.054800
     25 CBG          7.3330    -1.0290     5.1360 cd         1 241      -0.132400
     26 CAU          8.4420    -2.0500     5.1490 c3         1 241       0.045100
     27 CBA          8.8940    -2.3190     3.7380 ca         1 241      -0.056300
     28 CAS          8.2900    -3.3170     2.9980 ca         1 241      -0.178000
     29 CAK          9.9090    -1.5640     3.1820 ca         1 241      -0.189000
     30 CAJ         10.3250    -1.8080     1.8860 ca         1 241      -0.093000
     31 CAL          9.7280    -2.8080     1.1430 ca         1 241      -0.231000
     32 CBD          8.7060    -3.5640     1.6970 ca         1 241       0.172100
     33 OAW          8.1130    -4.5450     0.9680 os         1 241      -0.287900
     34 CBJ          8.6330    -4.7840    -0.3420 c3         1 241       0.023100
     35 CAC          9.8540    -5.7020    -0.2470 c3         1 241      -0.100100
     36 CAY          7.5740    -5.4420    -1.1890 c          1 241       0.898600
     37 OAD          7.8390    -5.7610    -2.4660 o          1 241      -0.826300
     38 OAF          6.4870    -5.6820    -0.7200 o          1 241      -0.826300
     39 HAA1        -0.3610    -0.8860     0.5070 h1         1 241       0.042367
     40 HAA2        -0.3610     0.8830     0.5140 h1         1 241       0.042367
     41 HAA3        -0.3610     0.0040    -1.0210 h1         1 241       0.042367
     42 HAM          0.2050    -0.0120     2.3150 ha         1 241       0.149500
     43 HAO          1.3140    -0.0100     4.5100 ha         1 241       0.154000
     44 HAN          4.0220     0.0010     0.3700 ha         1 241       0.149500
     45 HAP          5.1440     0.0020     2.5590 ha         1 241       0.154000
     46 HAB1         6.0270    -3.3680     5.4760 hc         1 241       0.060700
     47 HAB2         5.3420    -2.9420     3.9010 hc         1 241       0.060700
     48 HAB3         4.4160    -2.6420     5.3780 hc         1 241       0.060700
     49 HAR          5.0180     2.7610     5.1760 ha         1 241       0.137000
     50 HAQ          6.9670     4.2440     5.3540 ha         1 241       0.145000
     51 HAT          9.5930     0.8680     5.3550 ha         1 241       0.151000
     52 HAU1         9.2750    -1.6710     5.7290 hc         1 241       0.050200
     53 HAU2         8.0810    -2.9690     5.5950 hc         1 241       0.050200
     54 HAS          7.5290    -3.9410     3.4510 ha         1 241       0.136000
     55 HAK         10.3950    -0.7950     3.7700 ha         1 241       0.113000
     56 HAJ         11.1160    -1.2090     1.4500 ha         1 241       0.116000
     57 HAL         10.0150    -2.9610     0.1100 ha         1 241       0.150000
     58 HBJ          8.9220    -3.8430    -0.7930 h1         1 241       0.038700
     59 HAC1        10.7100    -5.2100    -0.6920 hc         1 241       0.033367
     60 HAC2        10.0620    -5.9190     0.7930 hc         1 241       0.033367
     61 HAC3         9.6530    -6.6260    -0.7760 hc         1 241       0.033367
@<TRIPOS>BOND
     1     1     2 1   
     2     1    39 1   
     3     1    40 1   
     4     1    41 1   
     5     2     3 1   
     6     3     6 ar  
     7     3     4 ar  
     8     4     5 ar  
     9     4    42 1   
    10     5     8 ar  
    11     5    43 1   
    12     6     7 ar  
    13     6    44 1   
    14     7     8 ar  
    15     7    45 1   
    16     8     9 1   
    17     9    10 2   
    18     9    11 1   
    19    11    12 1   
    20    11    14 1   
    21    12    13 1   
    22    12    25 2   
    23    13    46 1   
    24    13    47 1   
    25    13    48 1   
    26    14    24 ar  
    27    14    15 ar  
    28    15    16 ar  
    29    15    49 1   
    30    16    17 ar  
    31    16    50 1   
    32    17    23 ar  
    33    17    18 1   
    34    18    19 1   
    35    19    21 1   
    36    19    20 1   
    37    19    22 1   
    38    23    24 ar  
    39    23    51 1   
    40    24    25 1   
    41    25    26 1   
    42    26    27 1   
    43    26    52 1   
    44    26    53 1   
    45    27    29 ar  
    46    27    28 ar  
    47    28    32 ar  
    48    28    54 1   
    49    29    30 ar  
    50    29    55 1   
    51    30    31 ar  
    52    30    56 1   
    53    31    32 ar  
    54    31    57 1   
    55    32    33 1   
    56    33    34 1   
    57    34    35 1   
    58    34    36 1   
    59    34    58 1   
    60    35    59 1   
    61    35    60 1   
    62    35    61 1   
    63    36    38 1   
    64    36    37 1   
@<TRIPOS>SUBSTRUCTURE
     1 241         1 TEMP              0 ****  ****    0 ROOT
