@<TRIPOS>MOLECULE
molecule
   48    51     1     0     0
SMALL
bcc


@<TRIPOS>ATOM
      1 C4           0.0000     0.0000     0.0000 ca         1 242       0.461200
      2 C2           1.3920     0.0000     0.0000 ca         1 242      -0.285600
      3 C3           2.0120     0.0000     1.2610 ca         1 242       0.441600
      4 N2           1.2920    -0.0010     2.3960 nb         1 242      -0.701000
      5 C1          -0.0510    -0.0010     2.2630 ca         1 242       0.893900
      6 N3          -0.7510    -0.0000     1.1180 nb         1 242      -0.687000
      7 C8           2.1550    -0.0000    -1.1800 ca         1 242      -0.070000
      8 C9           3.5450     0.0000    -1.1110 cp         1 242      -0.053000
      9 C10          4.1700    -0.0000     0.1310 ca         1 242      -0.088000
     10 C11          3.4040    -0.0000     1.3010 ca         1 242      -0.184300
     11 N15         -0.8000    -0.0010     3.4600 nv         1 242      -1.075500
     12 C16          4.3350     0.0010    -2.3220 cp         1 242      -0.058000
     13 C17          4.7060    -1.2200    -2.8910 ca         1 242      -0.046000
     14 C18          5.4670    -1.2450    -4.0590 ca         1 242      -0.162600
     15 C19          5.8600    -0.0500    -4.6620 ca         1 242      -0.096000
     16 C20          5.4910     1.1700    -4.0960 ca         1 242      -0.139000
     17 C21          4.7300     1.1960    -2.9270 ca         1 242      -0.034300
     18 C25          4.3550     2.5230    -2.3500 c3         1 242      -0.054800
     19 C29          5.8520    -2.5170    -4.6500 c          1 242       0.693700
     20 O30          5.1580    -3.5350    -4.5150 o          1 242      -0.581100
     21 N31          7.0340    -2.4890    -5.4060 ns         1 242      -0.493100
     22 C32          7.6440    -3.5460    -6.1280 ca         1 242       0.075600
     23 C33          8.8210    -3.3030    -6.8140 ca         1 242      -0.131000
     24 C34          9.4220    -4.3430    -7.5220 ca         1 242      -0.158300
     25 C35          8.8370    -5.6080    -7.5350 ca         1 242      -0.110000
     26 C36          7.6490    -5.8350    -6.8370 ca         1 242      -0.107000
     27 C37          7.0490    -4.7940    -6.1280 ca         1 242      -0.132000
     28 C5          10.6900    -4.1020    -8.2700 c3         1 242       0.701200
     29 F3          11.1630    -5.2080    -8.9180 f          1 242      -0.235633
     30 F1          10.5820    -3.1430    -9.2360 f          1 242      -0.235633
     31 F2          11.7080    -3.6910    -7.4580 f          1 242      -0.235633
     32 H4          -0.5090     0.0000    -0.9560 h4         1 242       0.023100
     33 H8           1.6610     0.0000    -2.1440 ha         1 242       0.143000
     34 H10          5.2510     0.0000     0.1930 ha         1 242       0.144000
     35 H11          3.9050    -0.0000     2.2610 ha         1 242       0.153000
     36 H151        -1.0560     0.8660     3.8900 hn         1 242       0.443800
     37 H152        -1.0560    -0.8670     3.8900 hn         1 242       0.443800
     38 H17          4.4010    -2.1480    -2.4240 ha         1 242       0.161000
     39 H19          6.4510    -0.0690    -5.5690 ha         1 242       0.133000
     40 H20          5.7960     2.0980    -4.5630 ha         1 242       0.142000
     41 H251         4.5640     2.5270    -1.2870 hc         1 242       0.052367
     42 H252         3.2980     2.7010    -2.5100 hc         1 242       0.052367
     43 H253         4.9300     3.3030    -2.8340 hc         1 242       0.052367
     44 HN31         7.5080    -1.6080    -5.4390 hn         1 242       0.316500
     45 H33          9.2710    -2.3180    -6.8000 ha         1 242       0.144000
     46 H35          9.3040    -6.4160    -8.0850 ha         1 242       0.151000
     47 H36          7.1940    -6.8180    -6.8470 ha         1 242       0.146000
     48 H37          6.1270    -4.9620    -5.5840 ha         1 242       0.185000
@<TRIPOS>BOND
     1     1     6 ar
     2     1     2 ar
     3     1    32 1
     4     2     7 ar
     5     2     3 ar
     6     3     4 ar
     7     3    10 ar
     8     4     5 ar
     9     5     6 ar
    10     5    11 1
    11     7     8 ar
    12     7    33 1
    13     8    12 1
    14     8     9 ar
    15     9    10 ar
    16     9    34 1
    17    10    35 1
    18    11    36 1
    19    11    37 1
    20    12    17 ar
    21    12    13 ar
    22    13    14 ar
    23    13    38 1
    24    14    15 ar
    25    14    19 1
    26    15    16 ar
    27    15    39 1
    28    16    17 ar
    29    16    40 1
    30    17    18 1
    31    18    41 1
    32    18    42 1
    33    18    43 1
    34    19    21 1
    35    19    20 2
    36    21    22 1
    37    21    44 1
    38    22    27 ar
    39    22    23 ar
    40    23    24 ar
    41    23    45 1
    42    24    25 ar
    43    24    28 1
    44    25    26 ar
    45    25    46 1
    46    26    27 ar
    47    26    47 1
    48    27    48 1
    49    28    30 1
    50    28    31 1
    51    28    29 1
@<TRIPOS>SUBSTRUCTURE
     1 242         1 TEMP              0 ****  ****    0 ROOT
