@<TRIPOS>MOLECULE
molecule
   52    51     1     0     0
SMALL
bcc


@<TRIPOS>ATOM
      1 OAS          0.0000     0.0000     0.0000 o          1 243      -0.857300
      2 CAA          1.3430     0.0000     0.0000 c          1 243       0.890600
      3 OAT          1.9470     0.0000     1.0460 o          1 243      -0.857300
      4 CAB          2.0950    -0.0010    -1.3060 c3         1 243      -0.183400
      5 CAC          3.6000    -0.0010    -1.0270 c3         1 243      -0.063400
      6 CAD          4.3630    -0.0020    -2.3530 c3         1 243      -0.088400
      7 CAE          5.8680    -0.0030    -2.0750 c3         1 243      -0.079400
      8 CAF          6.6320    -0.0030    -3.4000 c3         1 243      -0.091400
      9 CAG          8.1370    -0.0030    -3.1220 c3         1 243      -0.098400
     10 CAH          8.9000    -0.0050    -4.4470 c3         1 243       0.068800
     11 CAI         10.3820    -0.0040    -4.1720 c2         1 243      -0.236200
     12 CAJ         11.1590    -0.9340    -4.7180 ce         1 243      -0.186000
     13 CAK         10.5980    -1.8800    -5.6970 ce         1 243      -0.006000
     14 CAL         11.3470    -2.8750    -6.1620 c2         1 243      -0.319200
     15 CAM         10.7720    -3.8420    -7.1650 c3         1 243       0.199300
     16 OAU          9.4610    -3.4170    -7.5420 oh         1 243      -0.614800
     17 CAN         11.6700    -3.8860    -8.4040 c3         1 243      -0.082400
     18 CAO         11.1560    -4.9570    -9.3670 c3         1 243      -0.085400
     19 CAP         12.0540    -5.0010   -10.6060 c3         1 243      -0.080400
     20 CAQ         11.5410    -6.0740   -11.5700 c3         1 243      -0.084400
     21 CAR         12.4390    -6.1160   -12.8090 c3         1 243      -0.092100
     22 HAB          1.8340     0.8830    -1.8740 hc         1 243       0.026700
     23 HABA         1.8330    -0.8860    -1.8730 hc         1 243       0.026700
     24 HAC          3.8610    -0.8860    -0.4590 hc         1 243       0.045700
     25 HACA         3.8620     0.8830    -0.4600 hc         1 243       0.045700
     26 HAD          4.1010    -0.8870    -2.9210 hc         1 243       0.028700
     27 HADA         4.1010     0.8820    -2.9210 hc         1 243       0.028700
     28 HAE          6.1300    -0.8870    -1.5070 hc         1 243       0.041200
     29 HAEA         6.1310     0.8820    -1.5070 hc         1 243       0.041200
     30 HAF          6.3700    -0.8880    -3.9680 hc         1 243       0.035700
     31 HAFA         6.3700     0.8810    -3.9690 hc         1 243       0.035700
     32 HAG          8.3990     0.8820    -2.5550 hc         1 243       0.055200
     33 HAGA         8.3990    -0.8870    -2.5530 hc         1 243       0.055200
     34 HAH          8.6380    -0.8900    -5.0130 hc         1 243       0.049200
     35 HAHA         8.6380     0.8790    -5.0160 hc         1 243       0.049200
     36 HAI          9.9710     0.4460    -5.0680 ha         1 243       0.093000
     37 HAJ         10.6320    -1.8270    -4.4060 ha         1 243       0.099000
     38 HAK          9.5770    -1.7640    -6.0380 ha         1 243       0.171000
     39 HAL         12.3680    -2.9900    -5.8220 ha         1 243       0.142000
     40 HAM         10.7190    -4.8300    -6.7230 h1         1 243       0.030700
     41 HOAU         8.8310    -4.0630    -7.2680 ho         1 243       0.402000
     42 HAN         11.6540    -2.9210    -8.8950 hc         1 243       0.053200
     43 HANA        12.6840    -4.1240    -8.1070 hc         1 243       0.053200
     44 HAO         11.1720    -5.9230    -8.8760 hc         1 243       0.042700
     45 HAOA        10.1420    -4.7200    -9.6640 hc         1 243       0.042700
     46 HAP         12.0380    -4.0360   -11.0980 hc         1 243       0.041200
     47 HAPA        13.0680    -5.2380   -10.3090 hc         1 243       0.041200
     48 HAQ         10.5260    -5.8370   -11.8670 hc         1 243       0.040200
     49 HAQA        11.5580    -7.0390   -11.0780 hc         1 243       0.040200
     50 HAR         12.0770    -6.8760   -13.4910 hc         1 243       0.031033
     51 HARA        13.4540    -6.3520   -12.5120 hc         1 243       0.031033
     52 HARB        12.4220    -5.1510   -13.3010 hc         1 243       0.031033
@<TRIPOS>BOND
     1     2     1 1
     2     4     2 1
     3     2     3 1
     4     4     5 1
     5     4    22 1
     6     4    23 1
     7     5     6 1
     8     5    24 1
     9     5    25 1
    10     7     6 1
    11     6    26 1
    12     6    27 1
    13     7     8 1
    14     7    28 1
    15     7    29 1
    16     9     8 1
    17     8    30 1
    18     8    31 1
    19     9    10 1
    20     9    32 1
    21     9    33 1
    22    10    11 1
    23    10    34 1
    24    10    35 1
    25    11    12 2
    26    11    36 1
    27    12    13 1
    28    12    37 1
    29    13    14 2
    30    13    38 1
    31    14    15 1
    32    14    39 1
    33    17    15 1
    34    15    16 1
    35    15    40 1
    36    16    41 1
    37    18    17 1
    38    17    42 1
    39    17    43 1
    40    19    18 1
    41    18    44 1
    42    18    45 1
    43    20    19 1
    44    19    46 1
    45    19    47 1
    46    21    20 1
    47    20    48 1
    48    20    49 1
    49    21    50 1
    50    21    51 1
    51    21    52 1
@<TRIPOS>SUBSTRUCTURE
     1 243         1 TEMP              0 ****  ****    0 ROOT
