@<TRIPOS>MOLECULE
243
   52    51     1     0     0
SMALL
bcc


@<TRIPOS>ATOM
      1 OAS         1.7960    2.3110    2.1110 o         1 243     -0.852800
      2 CAA         2.9860    2.0050    1.8140 c         1 243      0.907600
      3 OAT         4.0020    2.6040    2.2720 o         1 243     -0.852800
      4 CAB         3.2020    0.8170    0.8590 c3        1 243     -0.194400
      5 CAC         4.2260    1.1440   -0.2000 c3        1 243     -0.065400
      6 CAD         4.5890   -0.0700   -1.0290 c3        1 243     -0.078400
      7 CAE         5.6030    0.2730   -2.0990 c3        1 243     -0.079400
      8 CAF         5.9730   -0.9440   -2.9220 c3        1 243     -0.079400
      9 CAG         6.9840   -0.5990   -3.9940 c3        1 243     -0.078400
     10 CAH         7.3490   -1.8200   -4.8140 c3        1 243     -0.061200
     11 CAI         8.3360   -1.5120   -5.8740 c2        1 243     -0.122200
     12 CAJ         8.7980   -2.3910   -6.7770 ce        1 243     -0.187000
     13 CAK         8.4050   -3.7830   -6.8340 ce        1 243     -0.098000
     14 CAL         8.6890   -4.6410   -7.8220 c2        1 243     -0.228200
     15 CAM         9.4430   -4.3640   -9.0810 c3        1 243      0.180300
     16 OAU         9.2260   -3.0620   -9.6190 oh        1 243     -0.607800
     17 CAN        10.9490   -4.5120   -8.8560 c3        1 243     -0.073400
     18 CAO        11.6990   -4.5490  -10.1690 c3        1 243     -0.078400
     19 CAP        13.1930   -4.6380   -9.9430 c3        1 243     -0.078400
     20 CAQ        13.9450   -4.6850  -11.2560 c3        1 243     -0.079400
     21 CAR        15.4340   -4.7690  -11.0380 c3        1 243     -0.092100
     22 HAB         2.2280    0.5390    0.3860 hc        1 243      0.018700
     23 HABA        3.5490   -0.0540    1.4700 hc        1 243      0.018700
     24 HAC         5.1420    1.5580    0.3020 hc        1 243      0.044200
     25 HACA        3.8260    1.9490   -0.8700 hc        1 243      0.044200
     26 HAD         3.6650   -0.4890   -1.5080 hc        1 243      0.026700
     27 HADA        5.0050   -0.8690   -0.3610 hc        1 243      0.026700
     28 HAE         5.1850    1.0680   -2.7710 hc        1 243      0.037700
     29 HAEA        6.5240    0.6970   -1.6190 hc        1 243      0.037700
     30 HAF         5.0500   -1.3690   -3.3980 hc        1 243      0.035200
     31 HAFA        6.3930   -1.7370   -2.2490 hc        1 243      0.035200
     32 HAG         7.9070   -0.1750   -3.5170 hc        1 243      0.041200
     33 HAGA        6.5640    0.1940   -4.6660 hc        1 243      0.041200
     34 HAH         6.4180   -2.2480   -5.2760 hc        1 243      0.051200
     35 HAHA        7.7680   -2.6130   -4.1330 hc        1 243      0.051200
     36 HAI         8.7000   -0.4700   -5.8970 ha        1 243      0.126000
     37 HAJ         9.5370   -2.0670   -7.5320 ha        1 243      0.139000
     38 HAK         7.8230   -4.1460   -5.9650 ha        1 243      0.124000
     39 HAL         8.3600   -5.6910   -7.7340 ha        1 243      0.122000
     40 HAM         9.1090   -5.1060   -9.8680 h1        1 243      0.033700
     41 HOAU        8.3230   -2.8070   -9.3930 ho        1 243      0.409000
     42 HAN        11.1320   -5.4560   -8.2800 hc        1 243      0.050700
     43 HANA       11.3080   -3.6500   -8.2360 hc        1 243      0.050700
     44 HAO        11.4550   -3.6240  -10.7560 hc        1 243      0.046200
     45 HAOA       11.3570   -5.4280  -10.7760 hc        1 243      0.046200
     46 HAP        13.4300   -5.5550   -9.3410 hc        1 243      0.038700
     47 HAPA       13.5360   -3.7520   -9.3460 hc        1 243      0.038700
     48 HAQ        13.6010   -5.5710  -11.8520 hc        1 243      0.038200
     49 HAQA       13.7030   -3.7690  -11.8570 hc        1 243      0.038200
     50 HAR        15.9690   -4.8030  -12.0180 hc        1 243      0.030700
     51 HARA       15.6970   -5.6880  -10.4600 hc        1 243      0.030700
     52 HARB       15.7990   -3.8820  -10.4670 hc        1 243      0.030700
@<TRIPOS>BOND
     1    1    2 1   
     2    2    3 1   
     3    2    4 1   
     4    4    5 1   
     5    4   22 1   
     6    4   23 1   
     7    5    6 1   
     8    5   24 1   
     9    5   25 1   
    10    6    7 1   
    11    6   26 1   
    12    6   27 1   
    13    7    8 1   
    14    7   28 1   
    15    7   29 1   
    16    8    9 1   
    17    8   30 1   
    18    8   31 1   
    19    9   10 1   
    20    9   32 1   
    21    9   33 1   
    22   10   11 1   
    23   10   34 1   
    24   10   35 1   
    25   11   12 2   
    26   11   36 1   
    27   12   13 1   
    28   12   37 1   
    29   13   14 2   
    30   13   38 1   
    31   14   15 1   
    32   14   39 1   
    33   15   16 1   
    34   15   17 1   
    35   15   40 1   
    36   16   41 1   
    37   17   18 1   
    38   17   42 1   
    39   17   43 1   
    40   18   19 1   
    41   18   44 1   
    42   18   45 1   
    43   19   20 1   
    44   19   46 1   
    45   19   47 1   
    46   20   21 1   
    47   20   48 1   
    48   20   49 1   
    49   21   50 1   
    50   21   51 1   
    51   21   52 1   
@<TRIPOS>SUBSTRUCTURE
     1 243         1 TEMP              0 ****  ****    0 ROOT
