@<TRIPOS>MOLECULE
244
   31    33     1     0     0
SMALL
bcc


@<TRIPOS>ATOM
      1 C1          0.1470    0.1950   -0.0630 ca        1 244     -0.128000
      2 C2          1.5400    0.1660    0.0080 ca        1 244     -0.047300
      3 C3          2.1000    0.1100    1.2840 ca        1 244      0.038100
      4 C4          1.3190    0.0830    2.4810 ca        1 244     -0.057800
      5 C5         -0.0680    0.1140    2.3940 ca        1 244     -0.169000
      6 C6         -0.6330    0.1700    1.1130 ca        1 244      0.114100
      7 O9          3.4620    0.0700    1.5920 os        1 244     -0.204200
      8 C10         3.5330    0.0190    3.0060 cc        1 244      0.118900
      9 C11         2.2720    0.0250    3.5700 cd        1 244     -0.181200
     10 O12        -1.9960    0.1990    0.9140 oh        1 244     -0.495100
     11 C13         2.3890    0.1620   -1.2160 c3        1 244      0.029000
     12 C14         2.2010    1.3480   -2.0240 c1        1 244      0.212700
     13 N17         2.0630    2.2980   -2.6810 n1        1 244     -0.367800
     14 C18         4.8570   -0.0270    3.5750 ca        1 244     -0.084800
     15 C19         5.0120   -0.1260    4.9660 ca        1 244     -0.063000
     16 C20         6.2810   -0.1700    5.5340 ca        1 244     -0.190000
     17 C21         7.4090   -0.1140    4.7020 ca        1 244      0.141100
     18 C22         7.2700   -0.0150    3.3070 ca        1 244     -0.190000
     19 C23         5.9970    0.0290    2.7550 ca        1 244     -0.063000
     20 O28         8.6930   -0.1530    5.1890 oh        1 244     -0.491100
     21 H1         -0.3610    0.2430   -1.0380 ha        1 244      0.161000
     22 H5         -0.6960    0.0970    3.2940 ha        1 244      0.144000
     23 H11         2.0200   -0.0050    4.6260 ha        1 244      0.165000
     24 H12        -2.4250    0.2020    1.7820 ho        1 244      0.421000
     25 H131        3.4760    0.0900   -0.9250 hc        1 244      0.089200
     26 H132        2.1400   -0.7450   -1.8390 hc        1 244      0.089200
     27 H19         4.1230   -0.1700    5.6150 ha        1 244      0.145000
     28 H20         6.3980   -0.2480    6.6240 ha        1 244      0.148000
     29 H22         8.1680    0.0290    2.6740 ha        1 244      0.148000
     30 H23         5.8750    0.1080    1.6630 ha        1 244      0.145000
     31 H28         8.6470   -0.2180    6.1540 ho        1 244      0.423000
@<TRIPOS>BOND
     1    1    2 ar
     2    1    6 ar
     3    1   21 1
     4    2    3 ar
     5    2   11 1
     6    3    4 ar
     7    3    7 1
     8    4    5 ar
     9    4    9 1
    10    5    6 ar
    11    5   22 1
    12    6   10 1
    13    7    8 1
    14    8    9 2
    15    8   14 1
    16    9   23 1
    17   10   24 1
    18   11   12 1
    19   11   25 1
    20   11   26 1
    21   12   13 3
    22   14   15 ar
    23   14   19 ar
    24   15   16 ar
    25   15   27 1
    26   16   17 ar
    27   16   28 1
    28   17   18 ar
    29   17   20 1
    30   18   19 ar
    31   18   29 1
    32   19   30 1
    33   20   31 1
@<TRIPOS>SUBSTRUCTURE
     1 244         1 TEMP              0 ****  ****    0 ROOT
