@<TRIPOS>MOLECULE
molecule
   27    28     1     0     0
SMALL
bcc


@<TRIPOS>ATOM
      1 Cl7          0.0000     0.0000     0.0000 cl         1 245      -0.158000
      2 C1           6.1810     0.6650    -0.6420 c          1 245       0.785100
      3 O1           6.3280     1.1910     0.4440 o          1 245      -0.629100
      4 C3           3.9930     0.0000     0.0000 ca         1 245       0.113600
      5 C4           4.2450     0.0000     1.3710 ca         1 245      -0.256300
      6 C5           3.1830    -0.0020     2.2500 ca         1 245       0.451200
      7 N6           1.9390    -0.0050     1.8070 nb         1 245      -0.701000
      8 C7           1.6580    -0.0040     0.5170 ca         1 245       0.537300
      9 C8           2.6660     0.0040    -0.4270 ca         1 245      -0.277300
     10 N9           7.1580     0.7470    -1.5680 ns         1 245      -0.486100
     11 C10          8.3020     1.5090    -1.3130 ca         1 245       0.064600
     12 C11          8.8360     1.5560    -0.0310 ca         1 245      -0.141500
     13 C12          9.9660     2.3100     0.2170 ca         1 245      -0.112000
     14 C13         10.5660     3.0180    -0.8080 ca         1 245      -0.141000
     15 C14         10.0360     2.9740    -2.0850 ca         1 245      -0.112000
     16 C15          8.9100     2.2170    -2.3410 ca         1 245      -0.141500
     17 HN2          4.9560    -0.5080    -1.7780 hn         1 245       0.324500
     18 H4           5.2630     0.0020     1.7410 ha         1 245       0.178000
     19 H5           3.3700    -0.0030     3.3170 h4         1 245       0.035100
     20 H8           2.4320    -0.1670    -1.4710 ha         1 245       0.147000
     21 HN9          7.0680     0.2530    -2.4330 hn         1 245       0.319500
     22 H11          8.3670     1.0020     0.7730 ha         1 245       0.145500
     23 H12         10.3830     2.3470     1.2160 ha         1 245       0.133500
     24 H13         11.4510     3.6110    -0.6100 ha         1 245       0.131000
     25 H14         10.5090     3.5280    -2.8870 ha         1 245       0.133500
     26 H15          8.4960     2.1830    -3.3410 ha         1 245       0.145500
     27 N2           5.0410     0.0040    -0.9220 ns         1 245      -0.487100
@<TRIPOS>BOND
     1     1     8 1   
     2    13    12 ar  
     3    13    14 ar  
     4     8     9 ar  
     5     8     7 ar  
     6    12    11 ar  
     7    14    15 ar  
     8     3     2 2   
     9     9     4 ar  
    10     7     6 ar  
    11     2    10 1   
    12     2    27 1   
    13    11    10 1   
    14    11    16 ar  
    15     4    27 1   
    16     4     5 ar  
    17     6     5 ar  
    18    15    16 ar  
    19    27    17 1   
    20     5    18 1   
    21     6    19 1   
    22     9    20 1   
    23    10    21 1   
    24    12    22 1   
    25    13    23 1   
    26    14    24 1   
    27    15    25 1   
    28    16    26 1   
@<TRIPOS>SUBSTRUCTURE
     1 245         1 TEMP              0 ****  ****    0 ROOT
