@<TRIPOS>MOLECULE
molecule
   30    31     1     0     0
SMALL
bcc


@<TRIPOS>ATOM
      1 Cl5          0.0000     0.0000     0.0000 cl         1 246      -0.160000
      2 C1           6.1760     0.6740     0.6490 c          1 246       0.782100
      3 O1           6.3190     1.2130    -0.4320 o          1 246      -0.644100
      4 N2           7.1510     0.7540     1.5750 ns         1 246      -0.595900
      5 C3           3.9930     0.0000     0.0000 ca         1 246       0.115600
      6 N3           5.0410     0.0010     0.9210 ns         1 246      -0.490100
      7 C4           2.6660     0.0000     0.4270 ca         1 246      -0.278300
      8 C5           1.6580    -0.0000    -0.5160 ca         1 246       0.535300
      9 N6           1.9390    -0.0010    -1.8070 nb         1 246      -0.703000
     10 C7           3.1820    -0.0020    -2.2500 ca         1 246       0.449200
     11 C8           4.2450     0.0040    -1.3710 ca         1 246      -0.256300
     12 C9           8.3850     1.4860     1.2800 c3         1 246       0.178300
     13 C10          9.3040     1.4250     2.4730 ca         1 246      -0.123300
     14 C11          9.2300     2.3960     3.4520 ca         1 246      -0.110500
     15 C12         10.0730     2.3400     4.5460 ca         1 246      -0.131000
     16 C13         10.9900     1.3120     4.6610 ca         1 246      -0.117000
     17 C14         11.0630     0.3390     3.6810 ca         1 246      -0.131000
     18 C15         10.2170     0.3930     2.5890 ca         1 246      -0.110500
     19 HN2          7.0320     0.3140     2.4660 hn         1 246       0.313500
     20 HN3          4.9630    -0.5250     1.7690 hn         1 246       0.323500
     21 H4           2.4330    -0.1770     1.4700 ha         1 246       0.146000
     22 H7           3.3700    -0.0000    -3.3170 h4         1 246       0.034100
     23 H8           5.2630     0.0040    -1.7420 ha         1 246       0.179000
     24 H91          8.1480     2.5190     1.0590 h1         1 246       0.061200
     25 H92          8.8750     1.0370     0.4240 h1         1 246       0.061200
     26 H11          8.5110     3.2020     3.3630 ha         1 246       0.135500
     27 H12         10.0150     3.1020     5.3140 ha         1 246       0.134000
     28 H13         11.6520     1.2690     5.5180 ha         1 246       0.133000
     29 H14         11.7800    -0.4680     3.7720 ha         1 246       0.134000
     30 H15         10.2750    -0.3690     1.8210 ha         1 246       0.135500
@<TRIPOS>BOND
     1     1     8 1   
     2     8     7 ar  
     3     8     9 ar  
     4     7     5 ar  
     5     9    10 ar  
     6     3     2 2   
     7    14    15 ar  
     8    14    13 ar  
     9    15    16 ar  
    10     5     6 1   
    11     5    11 ar  
    12    10    11 ar  
    13     2     6 1   
    14     2     4 1   
    15    12    13 1   
    16    12     4 1   
    17    13    18 ar  
    18    16    17 ar  
    19    18    17 ar  
    20     4    19 1   
    21     6    20 1   
    22     7    21 1   
    23    10    22 1   
    24    11    23 1   
    25    12    24 1   
    26    12    25 1   
    27    14    26 1   
    28    15    27 1   
    29    16    28 1   
    30    17    29 1   
    31    18    30 1   
@<TRIPOS>SUBSTRUCTURE
     1 246         1 TEMP              0 ****  ****    0 ROOT
