@<TRIPOS>MOLECULE
molecule
   24    24     1     0     0
SMALL
bcc


@<TRIPOS>ATOM
      1 CAB          0.0000     0.0000     0.0000 ca         1 247      -0.090000
      2 CAD          1.3810     0.0000     0.0000 ca         1 247      -0.143500
      3 CAE          2.0740     0.0000     1.2020 ca         1 247       0.137100
      4 OAK          3.4330     0.0000     1.2050 oh         1 247      -0.518100
      5 CAF          1.3760     0.0000     2.4010 ca         1 247      -0.143500
      6 CAC         -0.0050     0.0000     2.3950 ca         1 247      -0.090000
      7 CAA         -0.6920     0.0060     1.1960 ca         1 247      -0.170300
      8 CAG         -2.2000     0.0060     1.1930 c3         1 247       0.127800
      9 NAJ         -2.6870     0.9020     0.1350 nz         1 247      -0.792600
     10 CAH         -2.7100    -1.4130     0.9350 c3         1 247       0.291600
     11 CAI         -4.2160    -1.4120     0.9320 c          1 247       0.853600
     12 OAM         -4.8900    -2.5360     1.2260 o          1 247      -0.772800
     13 OAL         -4.8200    -0.3990     0.6640 o          1 247      -0.772800
     14 F1          -2.2410    -1.8580    -0.3050 f          1 247      -0.217800
     15 F2          -2.2460    -2.2650     1.9420 f          1 247      -0.217800
     16 HAB         -0.5410     0.0020    -0.9390 ha         1 247       0.138000
     17 HAD          1.9230    -0.0050    -0.9380 ha         1 247       0.155000
     18 HOAK         3.7470    -0.8890     1.2050 ho         1 247       0.434000
     19 HAF          1.9140    -0.0020     3.3410 ha         1 247       0.155000
     20 HAC         -0.5510     0.0030     3.3310 ha         1 247       0.138000
     21 HAG         -2.5630     0.3510     2.1530 hx         1 247       0.128700
     22 HAJ1        -2.0230     1.6360    -0.0130 hn         1 247       0.456800
     23 HAJ2        -3.5650     1.2970     0.4100 hn         1 247       0.456800
     24 HAJ3        -2.8060     0.3840    -0.7130 hn         1 247       0.456800
@<TRIPOS>BOND
     1     5     6 ar  
     2     5     3 ar  
     3     6     7 ar  
     4     4     3 1   
     5     3     2 ar  
     6     7     8 1   
     7     7     1 ar  
     8     9     8 1   
     9     8    10 1   
    10     2     1 ar  
    11    12    11 1   
    12    10    14 1   
    13    10    11 1   
    14    10    15 1   
    15    11    13 1   
    16     1    16 1   
    17     2    17 1   
    18     4    18 1   
    19     5    19 1   
    20     6    20 1   
    21     8    21 1   
    22     9    22 1   
    23     9    23 1   
    24    24     9 1   
@<TRIPOS>SUBSTRUCTURE
     1 247         1 TEMP              0 ****  ****    0 ROOT
