@<TRIPOS>MOLECULE
24A
   59    61     1     0     0
SMALL
bcc


@<TRIPOS>ATOM
      1 C0A         0.0530   -0.4350   -0.0780 c3        1 24A     -0.121100
      2 C1A         1.5610   -0.3390    0.1140 c3        1 24A      0.055300
      3 N9A         2.0030   -0.2210    1.4680 na        1 24A     -0.282000
      4 C4A         2.2070   -1.2830    2.3760 ca        1 24A      0.464800
      5 N3A         2.2850   -2.6200    2.1500 nb        1 24A     -0.769000
      6 C2A         2.5420   -3.3470    3.2880 ca        1 24A      0.719300
      7 N1A         2.7130   -2.8640    4.5500 nb        1 24A     -0.740000
      8 C6A         2.6500   -1.5160    4.7850 ca        1 24A      0.753200
      9 C5A         2.3840   -0.6430    3.6770 ca        1 24A     -0.249200
     10 N7A         2.2530    0.7480    3.5520 nc        1 24A     -0.534100
     11 C8A         2.0050    0.9620    2.2540 cd        1 24A      0.366700
     12 N6A         2.7870   -1.0120    6.0700 nh        1 24A     -0.700300
     13 CR1         3.3540   -1.8320    7.0930 ca        1 24A      0.098600
     14 CR2         2.7050   -3.0130    7.4960 ca        1 24A     -0.169000
     15 CR3         3.3320   -3.8690    8.4030 ca        1 24A     -0.039500
     16 CR4         4.5780   -3.5450    8.9240 ca        1 24A     -0.373500
     17 CR5         5.1820   -2.3390    8.5940 ca        1 24A     -0.039500
     18 CR6         4.5870   -1.4720    7.6820 ca        1 24A     -0.169000
     19 PA          5.3730   -4.6500    9.8780 py        1 24A      1.346800
     20 OA1         4.4410   -4.6930   11.2200 oh        1 24A     -0.829400
     21 OA2         6.6560   -4.0680   10.3330 o         1 24A     -0.919500
     22 CAB         5.2830   -6.0160    9.1480 c2        1 24A     -0.734000
     23 PB          3.5460   -7.4450    8.7890 p4        1 24A      1.654300
     24 OB1         2.5250   -6.6820    9.5670 o         1 24A     -0.888167
     25 OB2         3.4130   -7.3690    7.3040 o         1 24A     -0.888167
     26 OB3         4.1250   -8.6820    9.3670 o         1 24A     -0.936967
     27 NS1         1.4130   -7.7530    5.2360 n3        1 24A     -0.910800
     28 CS1         2.1260   -7.6670    3.9740 c3        1 24A      0.179500
     29 CS2         3.5230   -7.0290    4.0500 c3        1 24A     -0.094900
     30 CS3         3.4620   -5.5290    4.2260 c3        1 24A     -0.069900
     31 CS4         2.6430   -4.8680    3.1240 c3        1 24A     -0.094000
     32 CS5         1.2400   -5.4590    3.0900 c3        1 24A     -0.069900
     33 CS6         1.3070   -6.9570    2.8830 c3        1 24A     -0.094900
     34 H0A1       -0.1640   -0.5230   -1.1700 hc        1 24A      0.042700
     35 H0A2       -0.3570   -1.3350    0.4420 hc        1 24A      0.042700
     36 H0A3       -0.4640    0.4700    0.3190 hc        1 24A      0.042700
     37 H1A1        2.0410   -1.2610   -0.3250 h1        1 24A      0.056700
     38 H1A2        1.9430    0.5630   -0.4470 h1        1 24A      0.056700
     39 H8A         1.8470    1.9400    1.7920 h5        1 24A      0.051800
     40 H6A         3.0130   -0.0410    6.1200 hn        1 24A      0.428800
     41 HR2         1.7330   -3.2990    7.0690 ha        1 24A      0.119500
     42 HR3         2.8730   -4.8510    8.6940 ha        1 24A      0.196500
     43 HR5         6.1570   -2.1120    9.0610 ha        1 24A      0.196500
     44 HR6         5.0870   -0.5330    7.4080 ha        1 24A      0.119500
     45 HA1         3.6760   -5.2610   11.1560 ho        1 24A      0.464000
     46 HAB1        5.7500   -6.8930    9.6120 ha        1 24A      0.017800
     47 HAB2        5.3470   -6.0600    8.0560 ha        1 24A      0.017800
     48 HS11        1.9890   -8.2560    5.8980 hn        1 24A      0.378300
     49 HS12        1.2960   -6.8320    5.6190 hn        1 24A      0.378300
     50 HS22        4.0650   -7.4530    4.9460 hc        1 24A      0.041200
     51 HS31        3.0250   -5.3190    5.2420 hc        1 24A      0.057450
     52 HS32        4.5000   -5.1070    4.2200 hc        1 24A      0.057450
     53 HS4         3.1460   -5.0710    2.1360 hc        1 24A      0.049700
     54 HS51        0.6490   -4.9910    2.2590 hc        1 24A      0.057450
     55 HS52        0.7150   -5.2310    4.0540 hc        1 24A      0.057450
     56 HS61        0.2670   -7.3720    2.8530 hc        1 24A      0.041200
     57 HS62        1.7880   -7.1740    1.8930 hc        1 24A      0.041200
     58 HS1         2.2720   -8.7360    3.6260 h1        1 24A      0.022700
     59 HS21        4.0910   -7.2880    3.1200 hc        1 24A      0.041200
@<TRIPOS>BOND
     1    1    2 1   
     2    1   34 1   
     3    1   35 1   
     4    1   36 1   
     5    2    3 1   
     6    2   37 1   
     7    2   38 1   
     8    3    4 1   
     9    3   11 1   
    10    4    5 ar  
    11    4    9 ar  
    12    5    6 ar  
    13    6    7 ar  
    14    6   31 1   
    15    7    8 ar  
    16    8    9 ar  
    17    8   12 1   
    18    9   10 1   
    19   10   11 2   
    20   11   39 1   
    21   12   13 1   
    22   12   40 1   
    23   13   14 ar  
    24   13   18 ar  
    25   14   15 ar  
    26   14   41 1   
    27   15   16 ar  
    28   15   42 1   
    29   16   17 ar  
    30   16   19 1   
    31   17   18 ar  
    32   17   43 1   
    33   18   44 1   
    34   19   20 1   
    35   19   21 1   
    36   19   22 2   
    37   20   45 1   
    38   22   46 1   
    39   22   47 1   
    40   23   24 1   
    41   23   25 1   
    42   23   26 2   
    43   27   28 1   
    44   27   48 1   
    45   27   49 1   
    46   28   29 1   
    47   28   33 1   
    48   28   58 1   
    49   29   30 1   
    50   29   50 1   
    51   29   59 1   
    52   30   31 1   
    53   30   51 1   
    54   30   52 1   
    55   31   32 1   
    56   31   53 1   
    57   32   33 1   
    58   32   54 1   
    59   32   55 1   
    60   33   56 1   
    61   33   57 1   
@<TRIPOS>SUBSTRUCTURE
     1 24A         1 TEMP              0 ****  ****    0 ROOT
