@<TRIPOS>MOLECULE
molecule
   59    62     1     0     0
SMALL
bcc


@<TRIPOS>ATOM
      1 C0A          0.0000     0.0000     0.0000 c3         1 24A      -0.116100
      2 C1A          1.5310     0.0000     0.0000 c3         1 24A       0.053300
      3 N9A          2.0190     0.0000     1.3810 na         1 24A      -0.256000
      4 C4A          2.1940    -1.1020     2.1800 ca         1 24A       0.473800
      5 N3A          2.0250    -2.4110     2.0240 nb         1 24A      -0.825000
      6 C2A          2.2950    -3.2440     3.0070 ca         1 24A       0.742300
      7 N1A          2.7460    -2.8350     4.1790 nb         1 24A      -0.808000
      8 C6A          2.9520    -1.5460     4.4240 ca         1 24A       0.791200
      9 C5A          2.6780    -0.6170     3.4070 ca         1 24A      -0.221200
     10 N7A          2.7640     0.7300     3.2980 nc         1 24A      -0.570100
     11 C8A          2.3770     1.0940     2.1100 cd         1 24A       0.385700
     12 N6A          3.4260    -1.1280     5.6580 nu         1 24A      -0.711300
     13 CR1          3.5830    -2.0500     6.6960 ca         1 24A       0.081600
     14 CR2          2.7130    -3.1260     6.8070 ca         1 24A      -0.176500
     15 CR3          2.8730    -4.0390     7.8320 ca         1 24A      -0.068500
     16 CR4          3.8930    -3.8750     8.7520 ca         1 24A      -0.177500
     17 CR5          4.7580    -2.8010     8.6460 ca         1 24A      -0.068500
     18 CR6          4.6060    -1.8880     7.6210 ca         1 24A      -0.176500
     19 PA           4.0970    -5.0720    10.1000 p5         1 24A       0.993700
     20 OA1          2.6630    -5.6910    10.4900 o          1 24A      -0.782000
     21 OA2          4.6790    -4.3930    11.2790 o          1 24A      -0.782000
     22 CAB          5.2100    -6.4120     9.5600 c3         1 24A      -0.414800
     23 PB           5.4150    -7.6140    10.9140 p5         1 24A       1.091700
     24 OB1          3.9800    -8.2330    11.3040 o          1 24A      -0.806167
     25 OB2          6.3970    -8.7970    10.4370 o          1 24A      -0.806167
     26 OB3          5.9960    -6.9350    12.0930 o          1 24A      -0.806167
     27 NS1          2.6690    -7.2580     5.1190 nz         1 24A      -0.810600
     28 CS1          2.1670    -7.4810     3.7570 c3         1 24A       0.076500
     29 CS2          0.8410    -6.7410     3.5740 c3         1 24A      -0.093400
     30 CS3          1.0590    -5.2430     3.7980 c3         1 24A      -0.084400
     31 CS4          2.0800    -4.7180     2.7860 c3         1 24A      -0.090000
     32 CS5          3.4060    -5.4600     2.9690 c3         1 24A      -0.084400
     33 CS6          3.1880    -6.9580     2.7450 c3         1 24A      -0.093400
     34 H0A1        -0.3610    -1.0170     0.0930 hc         1 24A       0.046367
     35 H0A2        -0.3610     0.5890     0.8340 hc         1 24A       0.046367
     36 H0A3        -0.3610     0.4280    -0.9270 hc         1 24A       0.046367
     37 H1A1         1.8920    -0.8850    -0.5110 h1         1 24A       0.058200
     38 H1A2         1.8920     0.8840    -0.5110 h1         1 24A       0.058200
     39 H8A          2.3450     2.1160     1.7540 h5         1 24A       0.066800
     40 H6A          3.6700    -0.1670     5.8000 hn         1 24A       0.461800
     41 HR2          1.9140    -3.2550     6.0870 ha         1 24A       0.108000
     42 HR3          2.1960    -4.8800     7.9190 ha         1 24A       0.151500
     43 HR5          5.5560    -2.6760     9.3680 ha         1 24A       0.151500
     44 HR6          5.2850    -1.0480     7.5390 ha         1 24A       0.108000
     45 HAB1         4.7840    -6.9090     8.6970 hc         1 24A       0.024700
     46 HAB2         6.1750    -5.9960     9.2970 hc         1 24A       0.024700
     47 HS11         2.8510    -8.1400     5.5560 hn         1 24A       0.391133
     48 HS12         3.5150    -6.7250     5.0800 hn         1 24A       0.391133
     49 HS31         0.1200    -4.7200     3.6670 hc         1 24A       0.066950
     50 HS32         1.4310    -5.0800     4.8020 hc         1 24A       0.066950
     51 HS4          1.7090    -4.8880     1.7820 hc         1 24A       0.066700
     52 HS51         3.7750    -5.2960     3.9740 hc         1 24A       0.066950
     53 HS52         4.1270    -5.0900     2.2490 hc         1 24A       0.066950
     54 HS61         2.8160    -7.1210     1.7410 hc         1 24A       0.053450
     55 HS62         4.1270    -7.4820     2.8770 hc         1 24A       0.053450
     56 HS1          2.0120    -8.5410     3.5940 hx         1 24A       0.067700
     57 HS21         0.1200    -7.1110     4.2920 hc         1 24A       0.053450
     58 HS13         1.9730    -6.7810     5.6570 hn         1 24A       0.391133
     59 HS22         0.4740    -6.9040     2.5680 hc         1 24A       0.053450
@<TRIPOS>BOND
     1     1     2 1   
     2     1    34 1   
     3     1    35 1   
     4     1    36 1   
     5     2     3 1   
     6     2    37 1   
     7     2    38 1   
     8     3     4 1   
     9     3    11 1   
    10     4     5 ar  
    11     4     9 ar  
    12     5     6 ar  
    13     6     7 ar  
    14     6    31 1   
    15     7     8 ar  
    16     8     9 ar  
    17     8    12 1   
    18     9    10 1   
    19    10    11 2   
    20    11    39 1   
    21    12    13 1   
    22    12    40 1   
    23    13    14 ar  
    24    13    18 ar  
    25    14    15 ar  
    26    14    41 1   
    27    15    16 ar  
    28    15    42 1   
    29    16    17 ar  
    30    16    19 1   
    31    17    18 ar  
    32    17    43 1   
    33    18    44 1   
    34    19    20 1   
    35    19    21 1   
    36    19    22 1   
    37    22    23 1   
    38    22    45 1   
    39    22    46 1   
    40    23    24 1   
    41    23    25 1   
    42    23    26 1   
    43    27    28 1   
    44    27    47 1   
    45    27    48 1   
    46    28    29 1   
    47    28    33 1   
    48    28    56 1   
    49    29    30 1   
    50    29    57 1   
    51    29    59 1   
    52    30    31 1   
    53    30    49 1   
    54    30    50 1   
    55    31    32 1   
    56    31    51 1   
    57    32    33 1   
    58    32    52 1   
    59    32    53 1   
    60    33    54 1   
    61    33    55 1   
    62    58    27 1   
@<TRIPOS>SUBSTRUCTURE
     1 24A         1 TEMP              0 ****  ****    0 ROOT
