@<TRIPOS>MOLECULE
24B
   16    14     1     0     0
SMALL
bcc


@<TRIPOS>ATOM
      1 F2          0.4990   -0.6650   -0.6260 f         1 24B     -0.075000
      2 F4          1.1850   -0.1870   -3.1880 f         1 24B     -0.085000
      3 O1          2.3600   -0.4660    4.7820 oh        1 24B     -0.416000
      4 C1          2.0750   -0.2090    1.0860 c2        1 24B     -0.138000
      5 C2          1.7190   -0.2290   -0.2610 c2        1 24B      0.245000
      6 C3          2.6150    0.2030   -1.3210 c2        1 24B     -0.276000
      7 C4          2.3450    0.2110   -2.6460 c2        1 24B      0.098000
      8 C5          4.4330    0.6370    1.8100 c1        1 24B     -0.185000
      9 C6          3.3570    0.2530    1.4490 c1        1 24B     -0.121000
     10 HO1         1.4940   -0.7670    4.4830 ho        1 24B      0.203000
     11 H3          3.6060    0.5530   -0.9800 ha        1 24B      0.185000
     12 H5          3.0860    0.5580   -3.3930 h4        1 24B      0.163000
     13 H6          5.3830    0.9750    2.1370 ha        1 24B      0.230000
     14 H71         2.7870   -0.2190    3.9540 ho        1 24B      0.203000
     15 H72         0.2170   -0.9810    1.8450 ha        1 24B      0.055000
     16 C7          1.2200   -0.6330    2.1330 c1        1 24B     -0.086000
@<TRIPOS>BOND
     1    1    5 1   
     2    2    7 1   
     3    3   10 1   
     4    3   14 1   
     5    4    5 1   
     6    4    9 1   
     7    4   16 1   
     8    5    6 1   
     9    6    7 1   
    10    6   11 1   
    11    7   12 1   
    12    8    9 1   
    13    8   13 1   
    14   15   16 1   
@<TRIPOS>SUBSTRUCTURE
     1 24B         1 TEMP              0 ****  ****    0 ROOT
