@<TRIPOS>MOLECULE
molecule
   16    16     1     0     0
SMALL
bcc


@<TRIPOS>ATOM
      1 F2           0.0000     0.0000     0.0000 f          1 24B      -0.136900
      2 F4           4.1030     0.0170    -2.3670 f          1 24B      -0.134900
      3 O1           2.2190    -0.0110     3.5900 oh         1 24B      -0.613800
      4 C1           2.0430     0.0000     1.1980 ca         1 24B      -0.142300
      5 C2           1.3510     0.0000     0.0000 ca         1 24B       0.158900
      6 C3           2.0430     0.0110    -1.1980 ca         1 24B      -0.210000
      7 C4           3.4260     0.0110    -1.1970 ca         1 24B       0.158900
      8 C5           4.1170     0.0060     0.0030 ca         1 24B      -0.185000
      9 C6           3.4250     0.0000     1.1980 ca         1 24B      -0.053000
     10 HO1          1.7470    -0.0140     4.4060 ho         1 24B       0.410000
     11 H3           1.5030    -0.0250    -2.1360 ha         1 24B       0.160000
     12 H5           5.2000     0.0060     0.0040 ha         1 24B       0.151000
     13 H6           3.9660    -0.0020     2.1370 ha         1 24B       0.166000
     14 H71          0.6680     0.8790     2.5650 h1         1 24B       0.038700
     15 H72          0.6670    -0.8900     2.5570 h1         1 24B       0.038700
     16 C7           1.2910    -0.0060     2.5040 c3         1 24B       0.193700
@<TRIPOS>BOND
     1     1     5 1   
     2     2     7 1   
     3     3    16 1   
     4     3    10 1   
     5     4     5 ar  
     6     4     9 ar  
     7     4    16 1   
     8     5     6 ar  
     9     6     7 ar  
    10     6    11 1   
    11     7     8 ar  
    12     8     9 ar  
    13     8    12 1   
    14     9    13 1   
    15    16    14 1   
    16    16    15 1   
@<TRIPOS>SUBSTRUCTURE
     1 24B         1 TEMP              0 ****  ****    0 ROOT
