@<TRIPOS>MOLECULE
molecule
   43    45     1     0     0
SMALL
bcc


@<TRIPOS>ATOM
      1 Cl1          0.0000     0.0000     0.0000 cl         1 24D      -0.094400
      2 C2           1.7370     0.0000     0.0000 ca         1 24D       0.040400
      3 C3           2.4280     0.0000     1.1990 ca         1 24D      -0.124000
      4 C4           3.8110     0.0000     1.2000 ca         1 24D      -0.095000
      5 C5           4.5020     0.0010     0.0030 ca         1 24D      -0.110300
      6 C6           6.0090     0.0020     0.0040 c3         1 24D       0.177300
      7 N7           6.4990    -1.3320    -0.3530 ns         1 24D      -0.603900
      8 C8           7.8240    -1.5700    -0.4160 c          1 24D       0.791100
      9 O9           8.6130    -0.6580    -0.2650 o          1 24D      -0.658100
     10 N10          8.2740    -2.8190    -0.6450 n          1 24D      -0.513800
     11 C11          9.7130    -3.1150    -0.6030 c3         1 24D       0.118000
     12 C12         10.1140    -3.8000    -1.9140 c3         1 24D      -0.109400
     13 C13          9.2260    -5.0260    -2.1360 c3         1 24D       0.150100
     14 C14          7.7640    -4.5870    -2.2480 c3         1 24D      -0.109400
     15 C15          7.3360    -3.9120    -0.9360 c3         1 24D       0.118000
     16 O16          9.6180    -5.6860    -3.3410 os         1 24D      -0.408100
     17 C17          9.4320    -7.0270    -3.3970 ca         1 24D       0.910300
     18 N18          9.7810    -7.6820    -4.4930 nb         1 24D      -0.781000
     19 C19          9.6120    -8.9910    -4.5810 ca         1 24D       0.495700
     20 C20          9.0640    -9.6750    -3.5080 ca         1 24D      -0.430600
     21 C21          8.7110    -8.9580    -2.3760 ca         1 24D       0.495700
     22 N22          8.9100    -7.6500    -2.3530 nb         1 24D      -0.781000
     23 C23          3.8120     0.0010    -1.1960 ca         1 24D       0.043400
     24 Cl24         4.6820    -0.0000    -2.6990 cl         1 24D      -0.084400
     25 C25          2.4290    -0.0050    -1.1980 ca         1 24D      -0.120000
     26 H3           1.8860    -0.0010     2.1370 ha         1 24D       0.151000
     27 H4           4.3520     0.0000     2.1380 ha         1 24D       0.149000
     28 H6           6.3710     0.7240    -0.7180 h1         1 24D       0.066200
     29 H6A          6.3700     0.2660     0.9910 h1         1 24D       0.066200
     30 HN7          5.8490    -2.0740    -0.5220 hn         1 24D       0.315500
     31 H11          9.9230    -3.7750     0.2300 h1         1 24D       0.057200
     32 H11A        10.2690    -2.1920    -0.4920 h1         1 24D       0.057200
     33 H12          9.9840    -3.1080    -2.7370 hc         1 24D       0.064450
     34 H12A        11.1500    -4.1110    -1.8550 hc         1 24D       0.064450
     35 H13          9.3340    -5.7040    -1.2970 h1         1 24D       0.074700
     36 H14          7.6600    -3.8840    -3.0660 hc         1 24D       0.064450
     37 H14A         7.1390    -5.4530    -2.4280 hc         1 24D       0.064450
     38 H15          7.3600    -4.6360    -0.1310 h1         1 24D       0.057200
     39 H15A         6.3350    -3.5120    -1.0430 h1         1 24D       0.057200
     40 H19          9.9000    -9.5210    -5.4810 h4         1 24D       0.032600
     41 H20          8.9140   -10.7470    -3.5530 ha         1 24D       0.148000
     42 H21          8.2820    -9.4620    -1.5190 h4         1 24D       0.032600
     43 H25          1.8880    -0.0050    -2.1360 ha         1 24D       0.160000
@<TRIPOS>BOND
     1     1     2 1   
     2     2     3 ar  
     3     2    25 ar  
     4     3     4 ar  
     5     4     5 ar  
     6     5     6 1   
     7     5    23 ar  
     8     6     7 1   
     9     7     8 1   
    10     8     9 2   
    11     8    10 1   
    12    10    11 1   
    13    10    15 1   
    14    11    12 1   
    15    12    13 1   
    16    13    14 1   
    17    13    16 1   
    18    14    15 1   
    19    16    17 1   
    20    17    18 ar  
    21    17    22 ar  
    22    18    19 ar  
    23    19    20 ar  
    24    20    21 ar  
    25    21    22 ar  
    26    23    24 1   
    27    23    25 ar  
    28     3    26 1   
    29     4    27 1   
    30     6    28 1   
    31     6    29 1   
    32     7    30 1   
    33    11    31 1   
    34    11    32 1   
    35    12    33 1   
    36    12    34 1   
    37    13    35 1   
    38    14    36 1   
    39    14    37 1   
    40    15    38 1   
    41    15    39 1   
    42    19    40 1   
    43    20    41 1   
    44    21    42 1   
    45    25    43 1   
@<TRIPOS>SUBSTRUCTURE
     1 24D         1 TEMP              0 ****  ****    0 ROOT
