@<TRIPOS>MOLECULE
molecule
   42    46     1     0     0
SMALL
bcc


@<TRIPOS>ATOM
      1 C18          0.0000     0.0000     0.0000 ca         1 24E      -0.106500
      2 C19          1.3810     0.0000     0.0000 ca         1 24E      -0.150000
      3 C22          2.0730     0.0000     1.2020 ca         1 24E       0.106100
      4 O3           3.4320     0.0000     1.2050 oh         1 24E      -0.522100
      5 C21          1.3760     0.0010     2.4010 ca         1 24E      -0.150000
      6 C20         -0.0050     0.0020     2.3960 ca         1 24E      -0.106500
      7 C17         -0.6930     0.0070     1.1960 ca         1 24E      -0.095300
      8 C16         -2.2000     0.0080     1.1930 c3         1 24E       0.045200
      9 C10         -2.7020     1.4290     1.1980 cc         1 24E      -0.112600
     10 N1          -3.0550     2.1430     2.3190 na         1 24E      -0.150100
     11 C9          -2.8660     2.1930     0.1130 cd         1 24E       0.072100
     12 O1          -2.6640     1.9600    -1.2040 os         1 24E      -0.201200
     13 C4          -2.6980     3.0000    -2.0770 ca         1 24E       0.178100
     14 C6          -2.2450     2.7720    -3.3760 ca         1 24E      -0.168000
     15 C5          -2.2560     3.7870    -4.3080 ca         1 24E      -0.075000
     16 C3          -2.7190     5.0490    -3.9710 ca         1 24E      -0.173000
     17 C1          -3.1700     5.2990    -2.6940 ca         1 24E      -0.044000
     18 C2          -3.1610     4.2790    -1.7410 ca         1 24E      -0.223600
     19 C7          -3.6450     4.5700    -0.3640 c          1 24E       0.632300
     20 O2          -4.2180     5.6010    -0.0630 o          1 24E      -0.540100
     21 C8          -3.3690     3.4980     0.5990 cd         1 24E      -0.295600
     22 C11         -3.4660     3.4010     1.9690 cc         1 24E       0.077700
     23 C12         -3.9210     4.4530     2.8840 cc         1 24E      -0.009100
     24 S1          -5.3360     5.4690     2.6430 ss         1 24E      -0.025800
     25 C15         -5.0280     6.3130     4.1540 cc         1 24E      -0.091100
     26 C14         -3.9320     5.8180     4.7400 cd         1 24E      -0.163000
     27 C13         -3.3150     4.7940     4.0590 cd         1 24E      -0.146000
     28 H1          -0.5410     0.0020    -0.9390 ha         1 24E       0.133500
     29 H2           1.9230    -0.0060    -0.9380 ha         1 24E       0.141000
     30 H3           3.7470    -0.8890     1.2050 ho         1 24E       0.419000
     31 H4           1.9150    -0.0010     3.3410 ha         1 24E       0.141000
     32 H5          -0.5500     0.0050     3.3320 ha         1 24E       0.133500
     33 H6          -2.5630    -0.5060     2.0750 hc         1 24E       0.062700
     34 H7          -2.5600    -0.4990     0.3060 hc         1 24E       0.062700
     35 H8          -3.0170     1.7930     3.2560 hn         1 24E       0.308700
     36 H9          -1.8810     1.7910    -3.6540 ha         1 24E       0.143000
     37 H10         -1.9020     3.5950    -5.3140 ha         1 24E       0.136000
     38 H11         -2.7230     5.8400    -4.7120 ha         1 24E       0.137000
     39 H12         -3.5320     6.2850    -2.4290 ha         1 24E       0.155000
     40 H13         -5.6360     7.1170     4.5520 h4         1 24E       0.171000
     41 H14         -3.5600     6.1920     5.6860 ha         1 24E       0.147000
     42 H15         -2.4200     4.3040     4.4220 ha         1 24E       0.144000
@<TRIPOS>BOND
     1     5     6 ar  
     2     5     3 ar  
     3     6     7 ar  
     4     4     3 1   
     5     3     2 ar  
     6     7     8 1   
     7     7     1 ar  
     8     8     9 1   
     9     2     1 ar  
    10     9    11 2   
    11     9    10 1   
    12    12    11 1   
    13    12    13 1   
    14    14    13 ar  
    15    14    15 ar  
    16    11    21 1   
    17    10    22 1   
    18    13    18 ar  
    19    15    16 ar  
    20    21    22 2   
    21    21    19 1   
    22    22    23 1   
    23    18    19 1   
    24    18    17 ar  
    25    16    17 ar  
    26    19    20 2   
    27    23    24 1   
    28    23    27 2   
    29    24    25 1   
    30    27    26 1   
    31    25    26 2   
    32     1    28 1   
    33     2    29 1   
    34     4    30 1   
    35     5    31 1   
    36     6    32 1   
    37     8    33 1   
    38     8    34 1   
    39    10    35 1   
    40    14    36 1   
    41    15    37 1   
    42    16    38 1   
    43    17    39 1   
    44    25    40 1   
    45    26    41 1   
    46    27    42 1   
@<TRIPOS>SUBSTRUCTURE
     1 24E         1 TEMP              0 ****  ****    0 ROOT
