@<TRIPOS>MOLECULE
24E
   42    46     1     0     0
SMALL
bcc


@<TRIPOS>ATOM
      1 C18         1.2570    0.6590    0.9580 ca        1 24E     -0.092500
      2 C19         2.2520    0.4580    1.9110 ca        1 24E     -0.184000
      3 C22         1.9140   -0.1140    3.1450 ca        1 24E      0.127100
      4 O3          2.8370   -0.3430    4.1380 oh        1 24E     -0.495100
      5 C21         0.5880   -0.4860    3.4260 ca        1 24E     -0.184000
      6 C20        -0.3900   -0.2760    2.4610 ca        1 24E     -0.092500
      7 C17        -0.0680    0.2970    1.2230 ca        1 24E     -0.129300
      8 C16        -1.1260    0.5040    0.1950 c3        1 24E      0.045200
      9 C10        -1.8800    1.7630    0.3780 cc        1 24E     -0.131600
     10 N1         -2.0910    2.3930    1.6120 na        1 24E     -0.147100
     11 C9         -2.5380    2.5420   -0.5830 cd        1 24E      0.070100
     12 O1         -2.5790    2.2690   -1.9290 os        1 24E     -0.200200
     13 C4         -3.2940    3.1970   -2.6800 ca        1 24E      0.159100
     14 C6         -3.3330    2.9180   -4.0590 ca        1 24E     -0.167000
     15 C5         -4.0220    3.7820   -4.9000 ca        1 24E     -0.077000
     16 C3         -4.6680    4.9120   -4.3860 ca        1 24E     -0.172000
     17 C1         -4.6260    5.1800   -3.0230 ca        1 24E     -0.048000
     18 C2         -3.9380    4.3270   -2.1450 ca        1 24E     -0.210600
     19 C7         -3.9070    4.6320   -0.6990 c         1 24E      0.635300
     20 O2         -4.4780    5.6260   -0.2170 o         1 24E     -0.577100
     21 C8         -3.1570    3.6670    0.0670 cd        1 24E     -0.286600
     22 C11        -2.8490    3.5480    1.4490 cc        1 24E      0.094700
     23 C12        -3.2090    4.4010    2.5430 cc        1 24E     -0.128100
     24 S1         -4.1530    5.7760    2.3920 ss        1 24E      0.241200
     25 C15        -4.0940    6.1410    3.9960 cc        1 24E     -0.231100
     26 C14        -3.3450    5.2230    4.7180 cd        1 24E     -0.161000
     27 C13        -2.8280    4.2080    3.8730 cd        1 24E     -0.154000
     28 H1          1.5180    1.1090   -0.0130 ha        1 24E      0.139000
     29 H2          3.2920    0.7450    1.6980 ha        1 24E      0.145000
     30 H3          3.7030   -0.0510    3.8150 ho        1 24E      0.421000
     31 H4          0.3450   -0.9380    4.3980 ha        1 24E      0.145000
     32 H5         -1.4290   -0.5760    2.6680 ha        1 24E      0.139000
     33 H6         -0.6730    0.5220   -0.8350 hc        1 24E      0.069700
     34 H7         -1.8500   -0.3590    0.2240 hc        1 24E      0.069700
     35 H8         -1.6980    2.0780    2.4640 hn        1 24E      0.311700
     36 H9         -2.8200    2.0270   -4.4460 ha        1 24E      0.153000
     37 H10        -4.0590    3.5740   -5.9800 ha        1 24E      0.138000
     38 H11        -5.2100    5.5870   -5.0630 ha        1 24E      0.140000
     39 H12        -5.1310    6.0660   -2.6040 ha        1 24E      0.159000
     40 H13        -4.5880    7.0080    4.4340 h4        1 24E      0.173000
     41 H14        -3.1670    5.2620    5.7930 ha        1 24E      0.151000
     42 H15        -2.2090    3.3890    4.2430 ha        1 24E      0.142000
@<TRIPOS>BOND
     1    1    2 ar  
     2    1    7 ar  
     3    1   28 1   
     4    2    3 ar  
     5    2   29 1   
     6    3    4 1   
     7    3    5 ar  
     8    4   30 1   
     9    5    6 ar  
    10    5   31 1   
    11    6    7 ar  
    12    6   32 1   
    13    7    8 1   
    14    8    9 1   
    15    8   33 1   
    16    8   34 1   
    17    9   10 1   
    18    9   11 2   
    19   10   22 1   
    20   10   35 1   
    21   11   12 1   
    22   11   21 1   
    23   12   13 1   
    24   13   14 ar  
    25   13   18 ar  
    26   14   15 ar  
    27   14   36 1   
    28   15   16 ar  
    29   15   37 1   
    30   16   17 ar  
    31   16   38 1   
    32   17   18 ar  
    33   17   39 1   
    34   18   19 1   
    35   19   20 2   
    36   19   21 1   
    37   21   22 2   
    38   22   23 1   
    39   23   24 1   
    40   23   27 2   
    41   24   25 1   
    42   25   26 2   
    43   25   40 1   
    44   26   27 1   
    45   26   41 1   
    46   27   42 1   
@<TRIPOS>SUBSTRUCTURE
     1 24E         1 TEMP              0 ****  ****    0 ROOT
