@<TRIPOS>MOLECULE
24F
   63    65     1     0     0
SMALL
bcc


@<TRIPOS>ATOM
      1 C01          0.0000     0.0000     0.0000 ca         1 24F       0.150100
      2 C02          1.3890     0.0000     0.0000 ca         1 24F      -0.178000
      3 C03          2.0800     0.0000     1.1930 ca         1 24F      -0.047500
      4 C04          1.3830    -0.0010     2.4020 ca         1 24F      -0.043000
      5 C05         -0.0140    -0.0020     2.3980 ca         1 24F      -0.047500
      6 C06         -0.6980    -0.0020     1.2010 ca         1 24F      -0.178000
      7 O07         -0.6770     0.0060    -1.1770 os         1 24F      -0.307900
      8 C08         -2.1040     0.0050    -1.1050 c3         1 24F       0.202400
      9 C09          2.1190    -0.0020     3.6840 cc         1 24F       0.085900
     10 C10          1.5530    -0.0030     4.9070 cd         1 24F      -0.173000
     11 C11          2.4490    -0.0040     5.9570 cd         1 24F      -0.015000
     12 C12          3.7370    -0.0040     5.6020 cc         1 24F      -0.020600
     13 S13          3.8700    -0.0100     3.8480 ss         1 24F      -0.166800
     14 S14          5.0970    -0.0030     6.7210 sy         1 24F       1.040200
     15 N15          5.4760    -1.5850     7.0330 n7         1 24F      -0.525100
     16 O16          6.2020     0.5410     6.0110 o          1 24F      -0.578300
     17 O17          4.6120     0.5400     7.9410 o          1 24F      -0.578300
     18 C18          5.9800    -2.4430     5.9570 c3         1 24F       0.086500
     19 C19          7.4860    -2.4520     5.9850 c          1 24F       0.971600
     20 OM0          8.1700    -3.1760     5.0840 o          1 24F      -0.875300
     21 O21          8.0790    -1.8080     6.8170 o          1 24F      -0.875300
     22 C22          5.4580    -3.8680     6.1540 c3         1 24F      -0.028700
     23 C23          5.9380    -4.4040     7.5050 c3         1 24F      -0.071900
     24 C24          5.3850    -5.8170     7.7140 c3         1 24F       0.050000
     25 N25          5.7650    -6.6490     6.5640 n          1 24F      -0.111800
     26 C26          5.4300    -6.1810     5.2120 c3         1 24F       0.050000
     27 C27          5.9830    -4.7640     5.0310 c3         1 24F      -0.071900
     28 C28         -2.6870     0.0130    -2.5200 c3         1 24F       0.000900
     29 C29          6.4080    -7.8190     6.7460 c          1 24F       0.696100
     30 O30          6.7500    -8.5720     5.6820 os         1 24F      -0.414900
     31 O31          6.6790    -8.1960     7.8690 o          1 24F      -0.688000
     32 C32          7.4410    -9.8200     5.9530 c3         1 24F       0.194100
     33 C33          7.1040   -10.8370     4.8610 c3         1 24F      -0.015100
     34 C34          8.9510    -9.5730     5.9710 c3         1 24F      -0.015100
     35 H02          1.9300    -0.0010    -0.9390 ha         1 24F       0.116500
     36 H03          3.1630     0.0350     1.1920 ha         1 24F       0.116000
     37 H05         -0.5590     0.0520     3.3330 ha         1 24F       0.116000
     38 H06         -1.7810    -0.0040     1.1960 ha         1 24F       0.116500
     39 H08         -2.4390     0.8860    -0.5710 h1         1 24F      -0.000800
     40 H08A        -2.4380    -0.8830    -0.5820 h1         1 24F      -0.000800
     41 H10          0.4800    -0.0030     5.0540 ha         1 24F       0.118000
     42 H11          2.1310    -0.0030     6.9920 ha         1 24F       0.127000
     43 HN15         5.4010    -1.9440     7.9640 hn         1 24F       0.347800
     44 H18          5.6380    -2.0620     5.0020 h1         1 24F       0.033700
     45 H22          4.3750    -3.8660     6.1340 hc         1 24F      -0.004300
     46 H23          5.5820    -3.7570     8.2970 hc         1 24F       0.056700
     47 H23A         7.0210    -4.4360     7.5160 hc         1 24F       0.056700
     48 H24          5.8030    -6.2390     8.6200 h1         1 24F       0.017950
     49 H24A         4.3050    -5.7760     7.7900 h1         1 24F       0.017950
     50 H26          4.3540    -6.1680     5.0900 h1         1 24F       0.017950
     51 H26A         5.8770    -6.8410     4.4790 h1         1 24F       0.017950
     52 H27          7.0650    -4.7920     5.0690 hc         1 24F       0.056700
     53 H27A         5.6590    -4.3700     4.0750 hc         1 24F       0.056700
     54 H28         -3.7690     0.0120    -2.4650 hc         1 24F       0.009033
     55 H28A        -2.3510    -0.8690    -3.0540 hc         1 24F       0.009033
     56 H28B        -2.3520     0.9000    -3.0430 hc         1 24F       0.009033
     57 H32          7.1260   -10.2050     6.9150 h1         1 24F       0.035700
     58 H33          7.6110   -11.7720     5.0690 hc         1 24F       0.009367
     59 H33A         6.0340   -11.0040     4.8410 hc         1 24F       0.009367
     60 H33B         7.4280   -10.4560     3.9000 hc         1 24F       0.009367
     61 H34          9.1970    -8.8960     6.7800 hc         1 24F       0.009367
     62 H34A         9.2570    -9.1350     5.0290 hc         1 24F       0.009367
     63 H34B         9.4690   -10.5140     6.1170 hc         1 24F       0.009367
@<TRIPOS>BOND
     1     1     2 ar  
     2     1     6 ar  
     3     1     7 1   
     4     2     3 ar  
     5     2    35 1   
     6     3     4 ar  
     7     3    36 1   
     8     4     5 ar  
     9     4     9 1   
    10     5     6 ar  
    11     5    37 1   
    12     6    38 1   
    13     7     8 1   
    14     8    28 1   
    15     8    39 1   
    16     8    40 1   
    17     9    10 2   
    18     9    13 1   
    19    10    11 1   
    20    10    41 1   
    21    11    12 2   
    22    11    42 1   
    23    12    13 1   
    24    12    14 1   
    25    14    15 1   
    26    14    16 2   
    27    14    17 2   
    28    15    18 1   
    29    15    43 1   
    30    18    19 1   
    31    18    22 1   
    32    18    44 1   
    33    19    20 1   
    34    19    21 1   
    35    22    23 1   
    36    22    27 1   
    37    22    45 1   
    38    23    24 1   
    39    23    46 1   
    40    23    47 1   
    41    24    25 1   
    42    24    48 1   
    43    24    49 1   
    44    25    26 1   
    45    25    29 1   
    46    26    27 1   
    47    26    50 1   
    48    26    51 1   
    49    27    52 1   
    50    27    53 1   
    51    28    54 1   
    52    28    55 1   
    53    28    56 1   
    54    29    30 1   
    55    29    31 2   
    56    30    32 1   
    57    32    33 1   
    58    32    34 1   
    59    32    57 1   
    60    33    58 1   
    61    33    59 1   
    62    33    60 1   
    63    34    61 1   
    64    34    62 1   
    65    34    63 1   
@<TRIPOS>SUBSTRUCTURE
     1 24F         1 TEMP              0 ****  ****    0 ROOT
