@<TRIPOS>MOLECULE
molecule
   34    35     1     0     0
SMALL
bcc


@<TRIPOS>ATOM
      1 C4           0.0000     0.0000     0.0000 cc         1 24H       0.073800
      2 C5           1.3990     0.0000     0.0000 cd         1 24H       0.346800
      3 C6           2.0760     0.0000     1.2420 c          1 24H       0.656000
      4 C8           0.7570    -0.0010    -2.0700 cc         1 24H       0.522400
      5 O6           3.2950     0.0000     1.2900 o          1 24H      -0.602500
      6 N7           1.8010    -0.0010    -1.2940 nd         1 24H      -0.636000
      7 N1           1.3390     0.0000     2.3740 ns         1 24H      -0.461400
      8 C2          -0.0220     0.0000     2.3100 cd         1 24H       0.378800
      9 N2          -0.7450     0.0010     3.4770 nz         1 24H      -0.704600
     10 N3          -0.6630     0.0000     1.1620 nc         1 24H      -0.485100
     11 N9          -0.3800     0.0060    -1.3140 na         1 24H      -0.131900
     12 CAJ         -1.7560     0.0090    -1.8190 c3         1 24H       0.048300
     13 CAS         -2.2770     1.4450    -1.8710 c3         1 24H       0.111100
     14 CAH         -3.6660     1.4610    -2.5130 c3         1 24H       0.111400
     15 OAD         -4.5300     0.5750    -1.8010 oh         1 24H      -0.622800
     16 OAN         -2.3600     1.9700    -0.5440 os         1 24H      -0.423600
     17 CAI         -2.2640     3.3940    -0.4750 c3         1 24H      -0.051800
     18 PAU         -0.5300     3.8990    -0.7250 p5         1 24H       1.016700
     19 OAE         -0.0750     3.5310    -2.2250 o          1 24H      -0.887167
     20 OAF         -0.3940     5.4870    -0.4970 o          1 24H      -0.887167
     21 OAC          0.3360     3.1850     0.2420 o          1 24H      -0.887167
     22 H8           0.7850    -0.0060    -3.1530 h5         1 24H       0.084100
     23 HN1          1.7950     0.0010     3.2650 hn         1 24H       0.315500
     24 HN2         -0.5150     0.8150     4.0110 hn         1 24H       0.455133
     25 HN2A        -1.7230     0.0060     3.2640 hn         1 24H       0.455133
     26 HAJ         -1.7760    -0.4180    -2.8150 h1         1 24H       0.058200
     27 HAJA        -2.3830    -0.5800    -1.1610 h1         1 24H       0.058200
     28 HAS         -1.6010     2.0540    -2.4580 h1         1 24H       0.153700
     29 HAH         -4.0700     2.4660    -2.4760 h1         1 24H       0.025200
     30 HAHA        -3.5900     1.1400    -3.5450 h1         1 24H       0.025200
     31 HOAD        -5.4030     0.6380    -2.1510 ho         1 24H       0.379000
     32 HAI         -2.6010     3.7310     0.4980 h1         1 24H       0.027700
     33 HAIA        -2.8840     3.8360    -1.2450 h1         1 24H       0.027700
     34 H23         -0.5200    -0.8170     4.0090 hn         1 24H       0.455133
@<TRIPOS>BOND
     1     1     2 2
     2     1    10 1
     3     1    11 1
     4     2     3 1
     5     2     6 1
     6     3     5 2
     7     3     7 1
     8     4     6 2
     9     4    11 1
    10     7     8 1
    11     8     9 1
    12     8    10 2
    13    11    12 1
    14    12    13 1
    15    13    14 1
    16    13    16 1
    17    14    15 1
    18    16    17 1
    19    17    18 1
    20    18    19 1
    21    18    20 1
    22    18    21 1
    23     4    22 1
    24     7    23 1
    25     9    24 1
    26     9    25 1
    27    12    26 1
    28    12    27 1
    29    13    28 1
    30    14    29 1
    31    14    30 1
    32    15    31 1
    33    17    32 1
    34    17    33 1
    35    34     9 1
@<TRIPOS>SUBSTRUCTURE
     1 24H         1 TEMP              0 ****  ****    0 ROOT
