@<TRIPOS>MOLECULE
24H
   34    35     1     0     0
SMALL
bcc


@<TRIPOS>ATOM
      1 C4           0.0000     0.0000     0.0000 cc         1 24H      -0.148200
      2 C5           1.3990     0.0000     0.0000 cd         1 24H       0.249800
      3 C6           2.0760     0.0000     1.2420 c          1 24H       0.569000
      4 C8           0.7570    -0.0010    -2.0700 cc         1 24H       0.286400
      5 O6           3.2950     0.0000     1.2900 o          1 24H      -0.679500
      6 N7           1.8010    -0.0010    -1.2940 nd         1 24H      -0.528000
      7 N1           1.3390     0.0000     2.3740 ns         1 24H      -0.002400
      8 C2          -0.0220     0.0000     2.3100 cd         1 24H      -0.162200
      9 N2          -0.7450     0.0010     3.4770 nz         1 24H       0.274400
     10 N3          -0.6630     0.0000     1.1620 nc         1 24H      -0.335100
     11 N9          -0.3800     0.0060    -1.3140 na         1 24H       0.346100
     12 CAJ         -1.7560     0.0090    -1.8190 c3         1 24H      -0.046700
     13 CAS         -2.2770     1.4450    -1.8710 c3         1 24H       0.102100
     14 CAH         -3.6660     1.4610    -2.5130 c3         1 24H       0.195400
     15 OAD         -4.5300     0.5750    -1.8010 oh         1 24H      -0.600800
     16 OAN         -2.3600     1.9700    -0.5440 os         1 24H      -0.397600
     17 CAI         -2.2640     3.3940    -0.4750 c3         1 24H       0.147200
     18 PAU         -0.5300     3.8990    -0.7250 p5         1 24H       0.471700
     19 OAE         -0.0750     3.5310    -2.2250 o          1 24H      -0.646833
     20 OAF         -0.3940     5.4870    -0.4970 o          1 24H      -0.646833
     21 OAC          0.3360     3.1850     0.2420 o          1 24H      -0.646833
     22 H8           0.7850    -0.0060    -3.1530 h5         1 24H       0.022100
     23 HN1          1.7950     0.0010     3.2650 hn         1 24H       0.146500
     24 HN2         -0.5150     0.8150     4.0110 hn         1 24H       0.171133
     25 HN2A        -1.7230     0.0060     3.2640 hn         1 24H       0.171133
     26 HAJ         -1.7760    -0.4180    -2.8150 h1         1 24H       0.027700
     27 HAJA        -2.3830    -0.5800    -1.1610 h1         1 24H       0.027700
     28 HAS         -1.6010     2.0540    -2.4580 h1         1 24H       0.122700
     29 HAH         -4.0700     2.4660    -2.4760 h1         1 24H      -0.011300
     30 HAHA        -3.5900     1.1400    -3.5450 h1         1 24H      -0.011300
     31 HOAD        -5.4030     0.6380    -2.1510 ho         1 24H       0.367000
     32 HAI         -2.6010     3.7310     0.4980 h1         1 24H      -0.002800
     33 HAIA        -2.8840     3.8360    -1.2450 h1         1 24H      -0.002800
     34 H23         -0.5200    -0.8170     4.0090 hn         1 24H       0.171133
@<TRIPOS>BOND
     1     1     2 2   
     2     1    10 1   
     3     1    11 1   
     4     2     3 1   
     5     2     6 1   
     6     3     5 2   
     7     3     7 1   
     8     4     6 2   
     9     4    11 1   
    10     4    22 1   
    11     7     8 1   
    12     7    23 1   
    13     8     9 1   
    14     8    10 2   
    15     9    24 1   
    16     9    25 1   
    17     9    34 1   
    18    11    12 1   
    19    12    13 1   
    20    12    26 1   
    21    12    27 1   
    22    13    14 1   
    23    13    16 1   
    24    13    28 1   
    25    14    15 1   
    26    14    29 1   
    27    14    30 1   
    28    15    31 1   
    29    16    17 1   
    30    17    18 1   
    31    17    32 1   
    32    17    33 1   
    33    18    19 1   
    34    18    20 1   
    35    18    21 1   
@<TRIPOS>SUBSTRUCTURE
     1 24H         1 TEMP              0 ****  ****    0 ROOT
