@<TRIPOS>MOLECULE
24I
   34    34     1     0     0
SMALL
bcc


@<TRIPOS>ATOM
      1 O5        328.5140 -614.2390  831.8060 o         1 24I     -0.604000
      2 C14       328.1600 -613.0790  832.1760 c2        1 24I      0.324000
      3 O6        327.5720 -612.2670  831.3990 o         1 24I     -0.604000
      4 C13       328.4900 -612.6050  833.5990 c3        1 24I     -0.216000
      5 C12       328.3350 -613.7020  834.6260 c3        1 24I     -0.128000
      6 C10       329.0430 -613.4020  835.9420 c3        1 24I     -0.116000
      7 C9        328.2500 -612.4680  836.8440 c2        1 24I      0.333000
      8 O4        328.1010 -612.9140  838.0990 os        1 24I     -0.678000
      9 O3        327.7740 -611.3610  836.5690 o         1 24I     -0.382000
     10 C7        329.3320 -614.6550  836.7440 c3        1 24I     -0.854000
     11 P1        328.8730 -614.4070  838.3610 p5        1 24I      1.978000
     12 O1        330.0520 -614.1170  839.2050 o         1 24I     -0.849000
     13 O2        327.8290 -615.3610  838.7880 o         1 24I     -0.849000
     14 C6       -467.2020  877.8310-1206.2030 c2        1 24I     -0.485000
     15 C8       -466.2960  877.9120-1207.2140 ca        1 24I      0.094000
     16 C5       -465.3030  876.8900-1207.4410 ca        1 24I     -0.287000
     17 C3       -464.3950  876.9830-1208.4640 ca        1 24I     -0.029000
     18 C4       -466.2640  879.0250-1208.1320 ca        1 24I     -0.287000
     19 C2       -465.3460  879.0950-1209.1470 ca        1 24I     -0.029000
     20 C1       -464.3930  878.0820-1209.3380 ca        1 24I     -0.470000
     21 I        -463.0490  878.2010-1210.8390 i         1 24I      0.002000
     22 H131      327.8390 -611.7350  833.8660 hc        1 24I      0.068000
     23 H132      329.5510 -612.2430  833.5820 hc        1 24I      0.068000
     24 H121      327.2470 -613.8870  834.8200 hc        1 24I      0.087500
     25 H122      328.7640 -614.6480  834.1960 hc        1 24I      0.087500
     26 H10       330.0050 -612.8650  835.6930 hc        1 24I      0.102000
     27 H7C1      330.4150 -614.9070  836.6700 hc        1 24I      0.116500
     28 H7C2      328.7720 -615.5220  836.3150 hc        1 24I      0.116500
     29 H6C1     -467.2220  876.9870-1205.5120 ha        1 24I      0.071000
     30 H6C2     -467.9510  878.6060-1206.0350 ha        1 24I      0.071000
     31 H5       -465.2940  876.0270-1206.7650 ha        1 24I      0.090000
     32 H3       -463.6520  876.1820-1208.6040 ha        1 24I      0.084000
     33 HA       -467.0030  879.8230-1207.9930 ha        1 24I      0.090000
     34 H2       -465.3540  879.9620-1209.8270 ha        1 24I      0.084000
@<TRIPOS>BOND
     1    1    2 1   
     2    2    3 1   
     3    2    4 1   
     4    4    5 1   
     5    4   22 1   
     6    4   23 1   
     7    5    6 1   
     8    5   24 1   
     9    5   25 1   
    10    6    7 1   
    11    6   10 1   
    12    6   26 1   
    13    7    8 1   
    14    7    9 1   
    15    8   11 1   
    16   10   11 1   
    17   10   27 1   
    18   10   28 1   
    19   11   12 1   
    20   11   13 1   
    21   14   15 1   
    22   14   29 1   
    23   14   30 1   
    24   15   16 1   
    25   15   18 1   
    26   16   17 1   
    27   16   31 1   
    28   17   20 1   
    29   17   32 1   
    30   18   19 1   
    31   18   33 1   
    32   19   20 1   
    33   19   34 1   
    34   20   21 1   
@<TRIPOS>SUBSTRUCTURE
     1 24I         1 TEMP              0 ****  ****    0 ROOT
