@<TRIPOS>MOLECULE
molecule
   34    34     1     0     0
SMALL
bcc


@<TRIPOS>ATOM
      1 O5           0.0000     0.0000     0.0000 o          1 24I      -0.909300
      2 C14          1.2090     0.0000     0.0000 c          1 24I       0.898600
      3 O6           1.8800     0.0000     1.1620 o          1 24I      -0.909300
      4 C13          1.9630     0.0010    -1.3050 c3         1 24I      -0.176400
      5 C12          0.9690     0.0010    -2.4680 c3         1 24I      -0.030400
      6 C10          1.7340     0.0010    -3.7930 c3         1 24I      -0.143700
      7 C9           2.5060    -1.2870    -3.9280 c          1 24I       0.865600
      8 O4           3.2550    -1.5090    -5.0190 o          1 24I      -0.842300
      9 O3           2.4500    -2.1190    -3.0540 o          1 24I      -0.842300
     10 C7           0.7450     0.1260    -4.9530 c3         1 24I      -0.216600
     11 P1           1.6460     0.5720    -6.4750 p5         1 24I       0.912400
     12 O1           2.4360     1.8000    -6.2380 o          1 24I      -0.754500
     13 O2           2.6330    -0.6310    -6.8850 o          1 24I      -0.754500
     14 C6           0.4530     0.8660    -7.8220 c3         1 24I      -0.215300
     15 C8           1.1890     1.3540    -9.0450 ca         1 24I       0.047700
     16 C5           1.6620     0.4460    -9.9740 ca         1 24I      -0.119000
     17 C3           2.3360     0.8910   -11.0950 ca         1 24I      -0.110000
     18 C4           1.3840     2.7080    -9.2400 ca         1 24I      -0.119000
     19 C2           2.0620     3.1540   -10.3590 ca         1 24I      -0.110000
     20 C1           2.5350     2.2470   -11.2880 ca         1 24I       0.028900
     21 I            3.5560     2.9230   -12.9880 i          1 24I      -0.294900
     22 H131         2.5850     0.8850    -1.3610 hc         1 24I       0.047700
     23 H132         2.5860    -0.8840    -1.3620 hc         1 24I       0.047700
     24 H121         0.3450    -0.8830    -2.4110 hc         1 24I       0.012700
     25 H122         0.3460     0.8860    -2.4110 hc         1 24I       0.012700
     26 H10          2.4220     0.8380    -3.8130 hc         1 24I       0.050700
     27 H7C1         0.0180     0.8960    -4.7250 hc         1 24I       0.011700
     28 H7C2         0.2360    -0.8190    -5.0980 hc         1 24I       0.011700
     29 H6C1        -0.2660     1.6140    -7.5110 hc         1 24I       0.042700
     30 H6C2        -0.0630    -0.0570    -8.0550 hc         1 24I       0.042700
     31 H5           1.5050    -0.6150    -9.8220 ha         1 24I       0.147500
     32 H3           2.7070     0.1800   -11.8230 ha         1 24I       0.109500
     33 HA           1.0130     3.4190    -8.5120 ha         1 24I       0.147500
     34 H2           2.2160     4.2160   -10.5100 ha         1 24I       0.109500
@<TRIPOS>BOND
     1     1     2 1   
     2     2     3 1   
     3     2     4 1   
     4     4     5 1   
     5     4    22 1   
     6     4    23 1   
     7     5     6 1   
     8     5    24 1   
     9     5    25 1   
    10     6     7 1   
    11     6    10 1   
    12     6    26 1   
    13     7     8 1   
    14     7     9 1   
    15    10    11 1   
    16    10    27 1   
    17    10    28 1   
    18    11    12 1   
    19    11    13 1   
    20    11    14 1   
    21    14    15 1   
    22    14    29 1   
    23    14    30 1   
    24    15    16 ar  
    25    15    18 ar  
    26    16    17 ar  
    27    16    31 1   
    28    17    20 ar  
    29    17    32 1   
    30    18    19 ar  
    31    18    33 1   
    32    19    20 ar  
    33    19    34 1   
    34    20    21 1   
@<TRIPOS>SUBSTRUCTURE
     1 24I         1 TEMP              0 ****  ****    0 ROOT
