@<TRIPOS>MOLECULE
molecule
   52    54     1     0     0
SMALL
bcc


@<TRIPOS>ATOM
      1 C01          0.0000     0.0000     0.0000 c3         1 24K      -0.092100
      2 C02          1.5300     0.0000     0.0000 c3         1 24K      -0.079400
      3 C03          2.0400     0.0000     1.4420 c3         1 24K      -0.103400
      4 C04          3.5700    -0.0010     1.4420 c3         1 24K       0.246800
      5 N05          4.0590    -0.0010     2.8230 nu         1 24K      -0.897900
      6 C06          5.4180    -0.0010     3.0760 ca         1 24K       0.984900
      7 N07          6.2620     0.0040     2.0540 nb         1 24K      -0.841000
      8 C08          7.5700     0.0040     2.2480 ca         1 24K       0.545200
      9 C09          8.0620    -0.0020     3.5530 cp         1 24K      -0.531100
     10 C10          7.1360    -0.0080     4.6130 ca         1 24K       0.796200
     11 N11          7.5700    -0.0130     5.9260 nu         1 24K      -0.888900
     12 C12          6.6010     0.0980     7.0190 c3         1 24K       0.240500
     13 C13          6.2940     1.5740     7.2810 c3         1 24K      -0.094400
     14 C14          5.2810     1.6890     8.4220 c3         1 24K      -0.087900
     15 C15          5.8660     1.0570     9.6870 c3         1 24K       0.144100
     16 O16          4.9210     1.1660    10.7540 oh         1 24K      -0.606800
     17 C17          6.1730    -0.4180     9.4260 c3         1 24K      -0.087900
     18 C18          7.1860    -0.5330     8.2840 c3         1 24K      -0.094400
     19 N19          5.8380    -0.0020     4.3320 nb         1 24K      -0.877000
     20 C20          9.5200    -0.0030     3.8160 cp         1 24K       0.506800
     21 C21         10.3450    -0.8940     3.1320 ca         1 24K      -0.247300
     22 C22         11.7050    -0.8820     3.3890 ca         1 24K      -0.089000
     23 C23         12.1960     0.0200     4.3220 ca         1 24K      -0.265300
     24 C24         11.3210     0.8760     4.9640 ca         1 24K       0.420200
     25 N25         10.0310     0.8490     4.6970 nb         1 24K      -0.704000
     26 H013        -0.3610     0.0010    -1.0210 hc         1 24K       0.034700
     27 H012        -0.3610     0.8840     0.5110 hc         1 24K       0.034700
     28 H011        -0.3610    -0.8850     0.5100 hc         1 24K       0.034700
     29 H021         1.8910    -0.8850    -0.5110 hc         1 24K       0.044200
     30 H022         1.8910     0.8850    -0.5110 hc         1 24K       0.044200
     31 H032         1.6780    -0.8840     1.9530 hc         1 24K       0.046700
     32 H031         1.6790     0.8850     1.9520 hc         1 24K       0.046700
     33 H042         3.9320     0.8830     0.9310 h1         1 24K       0.051700
     34 H041         3.9300    -0.8860     0.9320 h1         1 24K       0.051700
     35 H051         3.4080    -0.0140     3.5840 hn         1 24K       0.455800
     36 H081         8.2510     0.0080     1.4050 h4         1 24K       0.027100
     37 H111         8.5440    -0.1240     6.1300 hn         1 24K       0.461800
     38 H121         5.6860    -0.4170     6.7500 h1         1 24K       0.081700
     39 H131         7.2070     2.0880     7.5560 hc         1 24K       0.050700
     40 H132         5.8790     2.0190     6.3850 hc         1 24K       0.050700
     41 H142         4.3700     1.1700     8.1490 hc         1 24K       0.053450
     42 H141         5.0660     2.7340     8.6080 hc         1 24K       0.053450
     43 H151         6.7800     1.5720     9.9560 h1         1 24K       0.029700
     44 H161         5.2990     1.6620    11.4600 ho         1 24K       0.400000
     45 H172         5.2600    -0.9320     9.1500 hc         1 24K       0.053450
     46 H171         6.5880    -0.8640    10.3210 hc         1 24K       0.053450
     47 H181         7.4010    -1.5780     8.0980 hc         1 24K       0.050700
     48 H182         8.0960    -0.0140     8.5580 hc         1 24K       0.050700
     49 H211         9.9280    -1.5860     2.4100 ha         1 24K       0.143000
     50 H221        12.3710    -1.5630     2.8730 ha         1 24K       0.138000
     51 H231        13.2560     0.0520     4.5470 ha         1 24K       0.137000
     52 H241        11.7010     1.5830     5.6910 h4         1 24K       0.022100
@<TRIPOS>BOND
     1     1     2 1
     2     2     3 1
     3     3     4 1
     4     4     5 1
     5    14    13 1
     6    14    15 1
     7     5     6 1
     8    16    15 1
     9    13    12 1
    10    15    17 1
    11     6    19 ar
    12     6     7 ar
    13    19    10 ar
    14    12    11 1
    15    12    18 1
    16     7     8 ar
    17    17    18 1
    18    10    11 1
    19    10     9 ar
    20     8     9 ar
    21     9    20 1
    22    20    21 ar
    23    20    25 ar
    24    21    22 ar
    25    25    24 ar
    26    22    23 ar
    27    24    23 ar
    28     1    26 1
    29     1    27 1
    30     1    28 1
    31     2    29 1
    32     2    30 1
    33     3    31 1
    34     3    32 1
    35     4    33 1
    36     4    34 1
    37     5    35 1
    38     8    36 1
    39    11    37 1
    40    12    38 1
    41    13    39 1
    42    13    40 1
    43    14    41 1
    44    14    42 1
    45    15    43 1
    46    16    44 1
    47    17    45 1
    48    17    46 1
    49    18    47 1
    50    18    48 1
    51    21    49 1
    52    22    50 1
    53    23    51 1
    54    24    52 1
@<TRIPOS>SUBSTRUCTURE
     1 24K         1 TEMP              0 ****  ****    0 ROOT
