@<TRIPOS>MOLECULE
24K
   52    54     1     0     0
SMALL
bcc


@<TRIPOS>ATOM
      1 C01          0.0000     0.0000     0.0000 c3         1 24K       0.005900
      2 C02          1.5300     0.0000     0.0000 c3         1 24K      -0.022400
      3 C03          2.0400     0.0000     1.4420 c3         1 24K      -0.043400
      4 C04          3.5700    -0.0010     1.4420 c3         1 24K       0.164800
      5 N05          4.0590    -0.0010     2.8230 nu         1 24K      -0.484900
      6 C06          5.4180    -0.0010     3.0760 ca         1 24K       0.768900
      7 N07          6.2620     0.0040     2.0540 nb         1 24K      -0.757000
      8 C08          7.5700     0.0040     2.2480 ca         1 24K       0.547200
      9 C09          8.0620    -0.0020     3.5530 cp         1 24K      -0.551100
     10 C10          7.1360    -0.0080     4.6130 ca         1 24K       0.619200
     11 N11          7.5700    -0.0130     5.9260 nu         1 24K      -0.480900
     12 C12          6.6010     0.0980     7.0190 c3         1 24K       0.126500
     13 C13          6.2940     1.5740     7.2810 c3         1 24K      -0.035400
     14 C14          5.2810     1.6890     8.4220 c3         1 24K      -0.038400
     15 C15          5.8660     1.0570     9.6870 c3         1 24K       0.189100
     16 O16          4.9210     1.1660    10.7540 oh         1 24K      -0.585800
     17 C17          6.1730    -0.4180     9.4260 c3         1 24K      -0.038400
     18 C18          7.1860    -0.5330     8.2840 c3         1 24K      -0.035400
     19 N19          5.8380    -0.0020     4.3320 nb         1 24K      -0.780000
     20 C20          9.5200    -0.0030     3.8160 cp         1 24K       0.480800
     21 C21         10.3450    -0.8940     3.1320 ca         1 24K      -0.218300
     22 C22         11.7050    -0.8820     3.3890 ca         1 24K      -0.061000
     23 C23         12.1960     0.0200     4.3220 ca         1 24K      -0.235300
     24 C24         11.3210     0.8760     4.9640 ca         1 24K       0.407200
     25 N25         10.0310     0.8490     4.6970 nb         1 24K      -0.598000
     26 H013        -0.3610     0.0010    -1.0210 hc         1 24K       0.001367
     27 H012        -0.3610     0.8840     0.5110 hc         1 24K       0.001367
     28 H011        -0.3610    -0.8850     0.5100 hc         1 24K       0.001367
     29 H021         1.8910    -0.8850    -0.5110 hc         1 24K       0.015200
     30 H022         1.8910     0.8850    -0.5110 hc         1 24K       0.015200
     31 H032         1.6780    -0.8840     1.9530 hc         1 24K       0.017700
     32 H031         1.6790     0.8850     1.9520 hc         1 24K       0.017700
     33 H042         3.9320     0.8830     0.9310 h1         1 24K       0.025700
     34 H041         3.9300    -0.8860     0.9320 h1         1 24K       0.025700
     35 H051         3.4080    -0.0140     3.5840 hn         1 24K       0.299800
     36 H081         8.2510     0.0080     1.4050 h4         1 24K      -0.021900
     37 H111         8.5440    -0.1240     6.1300 hn         1 24K       0.310800
     38 H121         5.6860    -0.4170     6.7500 h1         1 24K       0.060700
     39 H131         7.2070     2.0880     7.5560 hc         1 24K       0.021700
     40 H132         5.8790     2.0190     6.3850 hc         1 24K       0.021700
     41 H142         4.3700     1.1700     8.1490 hc         1 24K       0.024200
     42 H141         5.0660     2.7340     8.6080 hc         1 24K       0.024200
     43 H151         6.7800     1.5720     9.9560 h1         1 24K      -0.002300
     44 H161         5.2990     1.6620    11.4600 ho         1 24K       0.387000
     45 H172         5.2600    -0.9320     9.1500 hc         1 24K       0.024200
     46 H171         6.5880    -0.8640    10.3210 hc         1 24K       0.024200
     47 H181         7.4010    -1.5780     8.0980 hc         1 24K       0.021700
     48 H182         8.0960    -0.0140     8.5580 hc         1 24K       0.021700
     49 H211         9.9280    -1.5860     2.4100 ha         1 24K       0.120000
     50 H221        12.3710    -1.5630     2.8730 ha         1 24K       0.108000
     51 H231        13.2560     0.0520     4.5470 ha         1 24K       0.113000
     52 H241        11.7010     1.5830     5.6910 h4         1 24K      -0.021900
@<TRIPOS>BOND
     1     1     2 1   
     2     1    26 1   
     3     1    27 1   
     4     1    28 1   
     5     2     3 1   
     6     2    29 1   
     7     2    30 1   
     8     3     4 1   
     9     3    31 1   
    10     3    32 1   
    11     4     5 1   
    12     4    33 1   
    13     4    34 1   
    14     5     6 1   
    15     5    35 1   
    16     6     7 ar  
    17     6    19 ar  
    18     7     8 ar  
    19     8     9 ar  
    20     8    36 1   
    21     9    10 ar  
    22     9    20 1   
    23    10    11 1   
    24    10    19 ar  
    25    11    12 1   
    26    11    37 1   
    27    12    13 1   
    28    12    18 1   
    29    12    38 1   
    30    13    14 1   
    31    13    39 1   
    32    13    40 1   
    33    14    15 1   
    34    14    41 1   
    35    14    42 1   
    36    15    16 1   
    37    15    17 1   
    38    15    43 1   
    39    16    44 1   
    40    17    18 1   
    41    17    45 1   
    42    17    46 1   
    43    18    47 1   
    44    18    48 1   
    45    20    21 ar  
    46    20    25 ar  
    47    21    22 ar  
    48    21    49 1   
    49    22    23 ar  
    50    22    50 1   
    51    23    24 ar  
    52    23    51 1   
    53    24    25 ar  
    54    24    52 1   
@<TRIPOS>SUBSTRUCTURE
     1 24K         1 TEMP              0 ****  ****    0 ROOT
