@<TRIPOS>MOLECULE
molecule
   70    74     1     0     0
SMALL
bcc


@<TRIPOS>ATOM
      1 C1           0.0000     0.0000     0.0000 c3         1 24L      -0.177100
      2 C2           1.5070     0.0000     0.0000 c          1 24L       0.583300
      3 O3           2.1140     0.0000     1.0520 o          1 24L      -0.535100
      4 C4           2.2130     0.0010    -1.2220 ce         1 24L      -0.368400
      5 C5           1.5000     0.0020    -2.4500 c          1 24L       0.606300
      6 C6           2.3170    -0.0670    -3.7140 c3         1 24L      -0.125500
      7 C7           3.8020     0.2770    -3.5820 c2         1 24L       0.168900
      8 C8           4.3770     0.2170    -2.3790 cf         1 24L      -0.235000
      9 C9           3.6190     0.0070    -1.2180 cf         1 24L       0.293100
     10 O10          4.1090     0.6810    -4.8310 os         1 24L      -0.187200
     11 C11          3.0550     1.4110    -5.3070 ca         1 24L       0.189100
     12 C12          1.8790     1.0110    -4.6750 ca         1 24L      -0.221300
     13 C13          0.6690     1.5950    -4.9930 ca         1 24L       0.236100
     14 C14          0.6070     2.6000    -5.9510 ca         1 24L      -0.327000
     15 C15          1.7610     3.0180    -6.5890 ca         1 24L       0.234100
     16 C16          2.9950     2.4290    -6.2710 ca         1 24L      -0.188600
     17 C17          2.1570    -1.4470    -4.3550 c3         1 24L      -0.063100
     18 O18          0.2870     0.0550    -2.4800 o          1 24L      -0.500100
     19 O19          4.2650    -0.2030    -0.0520 oh         1 24L      -0.477100
     20 O20         -0.4640     1.1850    -4.3680 oh         1 24L      -0.464100
     21 O21          1.7000     4.0000    -7.5240 os         1 24L      -0.301900
     22 C22          0.4120     4.5540    -7.7980 c3         1 24L       0.127700
     23 C23          4.2210     2.8770    -6.9470 c          1 24L       0.683700
     24 O24          4.5780     2.3410    -7.9790 o          1 24L      -0.597100
     25 N25          4.9500     3.8830    -6.4230 ns         1 24L      -0.567900
     26 C26          6.1720     4.3300    -7.0950 c3         1 24L       0.162300
     27 C27          6.7950     5.4560    -6.3110 ca         1 24L      -0.124300
     28 C28          7.5680     5.1800    -5.1710 ca         1 24L      -0.033000
     29 C29          8.1450     6.2530    -4.4460 ca         1 24L      -0.032000
     30 C30          7.9330     7.5710    -4.8830 ca         1 24L      -0.113000
     31 C31          7.1790     7.8010    -5.9930 ca         1 24L      -0.058300
     32 C32          6.6150     6.7470    -6.7070 ca         1 24L      -0.085000
     33 C33          8.9170     5.9770    -3.3050 ca         1 24L      -0.110000
     34 C34          9.1000     4.6870    -2.9120 ca         1 24L      -0.138000
     35 C35          8.5330     3.6320    -3.6250 ca         1 24L      -0.136000
     36 C36          7.7790     3.8610    -4.7340 ca         1 24L      -0.122000
     37 C37          6.9540     9.2160    -6.4570 c3         1 24L      -0.053100
     38 C38          8.0610     9.6140    -7.4360 c3         1 24L      -0.058400
     39 C39          7.8320    11.0510    -7.9080 c3         1 24L      -0.184400
     40 C40          8.9230    11.4430    -8.8710 c          1 24L       0.890600
     41 O41          8.9260    12.6700    -9.4180 o          1 24L      -0.853800
     42 O42          9.7940    10.6550    -9.1510 o          1 24L      -0.853800
     43 H1          -0.3610    -0.8650    -0.5440 hc         1 24L       0.061367
     44 H1A         -0.3610    -0.0390     1.0210 hc         1 24L       0.061367
     45 H1B         -0.3610     0.9030    -0.4770 hc         1 24L       0.061367
     46 H14         -0.3440     3.0550    -6.1980 ha         1 24L       0.149000
     47 H17          1.1060    -1.6450    -4.5300 hc         1 24L       0.053033
     48 H17A         2.6900    -1.4720    -5.2980 hc         1 24L       0.053033
     49 H17B         2.5610    -2.2030    -3.6920 hc         1 24L       0.053033
     50 HO19         4.7450    -1.0130    -0.1000 ho         1 24L       0.438000
     51 HO20        -1.1860     1.2150    -4.9740 ho         1 24L       0.418000
     52 H22          0.5030     5.3190    -8.5600 h1         1 24L       0.047367
     53 H22A        -0.2500     3.7720    -8.1490 h1         1 24L       0.047367
     54 H22B         0.0080     4.9920    -6.8940 h1         1 24L       0.047367
     55 HN25         4.6530     4.3280    -5.5770 hn         1 24L       0.321500
     56 H26          5.9290     4.6750    -8.0930 h1         1 24L       0.061200
     57 H26A         6.8710     3.5050    -7.1590 h1         1 24L       0.061200
     58 H30          8.3650     8.4010    -4.3370 ha         1 24L       0.140000
     59 H32          6.0190     6.9570    -7.5870 ha         1 24L       0.139000
     60 H33          9.3640     6.7870    -2.7410 ha         1 24L       0.132000
     61 H34          9.6960     4.4770    -2.0320 ha         1 24L       0.120000
     62 H35          8.6940     2.6140    -3.2910 ha         1 24L       0.117000
     63 H36          7.3440     3.0310    -5.2780 ha         1 24L       0.134000
     64 H37          6.9710     9.8830    -5.6030 hc         1 24L       0.040200
     65 H37A         5.9930     9.2860    -6.9510 hc         1 24L       0.040200
     66 H38          8.0450     8.9470    -8.2890 hc         1 24L       0.051200
     67 H38A         9.0220     9.5450    -6.9410 hc         1 24L       0.051200
     68 H39          6.8710    11.1200    -8.4030 hc         1 24L       0.027700
     69 H39A         7.8480    11.7180    -7.0540 hc         1 24L       0.027700
     70 H8           5.4510     0.3340    -2.2980 ha         1 24L       0.163000
@<TRIPOS>BOND
     1     1     2 1
     2     2     3 2
     3     2     4 1
     4     4     5 1
     5     4     9 2
     6     5     6 1
     7     5    18 2
     8     6     7 1
     9     6    12 1
    10     6    17 1
    11     7     8 2
    12     7    10 1
    13     8     9 1
    14     9    19 1
    15    10    11 1
    16    11    12 ar
    17    11    16 ar
    18    12    13 ar
    19    13    14 ar
    20    13    20 1
    21    14    15 ar
    22    15    16 ar
    23    15    21 1
    24    16    23 1
    25    21    22 1
    26    23    24 2
    27    23    25 1
    28    25    26 1
    29    26    27 1
    30    27    28 ar
    31    27    32 ar
    32    28    29 ar
    33    28    36 ar
    34    29    30 ar
    35    29    33 ar
    36    30    31 ar
    37    31    32 ar
    38    31    37 1
    39    33    34 ar
    40    34    35 ar
    41    35    36 ar
    42    37    38 1
    43    38    39 1
    44    39    40 1
    45    40    41 1
    46    40    42 1
    47     1    43 1
    48     1    44 1
    49     1    45 1
    50    14    46 1
    51    17    47 1
    52    17    48 1
    53    17    49 1
    54    19    50 1
    55    20    51 1
    56    22    52 1
    57    22    53 1
    58    22    54 1
    59    25    55 1
    60    26    56 1
    61    26    57 1
    62    30    58 1
    63    32    59 1
    64    33    60 1
    65    34    61 1
    66    35    62 1
    67    36    63 1
    68    37    64 1
    69    37    65 1
    70    38    66 1
    71    38    67 1
    72    39    68 1
    73    39    69 1
    74     8    70 1
@<TRIPOS>SUBSTRUCTURE
     1 24L         1 TEMP              0 ****  ****    0 ROOT
