@<TRIPOS>MOLECULE
molecule
   41    43     1     0     0
SMALL
bcc


@<TRIPOS>ATOM
      1 CAB          0.0000     0.0000     0.0000 ca         1 24P      -0.123000
      2 CAA          1.3820     0.0000     0.0000 ca         1 24P      -0.125000
      3 CAF          2.0740     0.0000     1.1970 ca         1 24P      -0.131000
      4 CAE          1.3830     0.0020     2.3950 ca         1 24P      -0.125000
      5 CAD          0.0000     0.0040     2.3940 ca         1 24P      -0.123000
      6 CAC         -0.6910     0.0010     1.1970 ca         1 24P      -0.075300
      7 CAG         -2.1980     0.0020     1.1980 c3         1 24P       0.015200
      8 CAH         -2.7020    -1.4180     1.1990 ca         1 24P      -0.119300
      9 CAM         -2.9320    -2.0680     2.3970 ca         1 24P      -0.084500
     10 CAL         -3.3920    -3.3710     2.4000 ca         1 24P      -0.188500
     11 CAI         -2.9380    -2.0670     0.0010 ca         1 24P      -0.084500
     12 CAJ         -3.4000    -3.3690    -0.0010 ca         1 24P      -0.188500
     13 CAK         -3.6250    -4.0250     1.2000 ca         1 24P       0.146100
     14 OAN         -4.0790    -5.3070     1.2000 os         1 24P      -0.329900
     15 CAO         -4.2960    -5.9180    -0.0730 c3         1 24P       0.151400
     16 CAP         -4.8030    -7.3480     0.1280 c3         1 24P       0.152500
     17 CAQ         -5.1600    -7.9740    -1.2320 c3         1 24P      -0.086400
     18 CAR         -4.2550    -9.2230    -1.3520 c3         1 24P      -0.083400
     19 CAS         -3.8940    -9.5310     0.1230 c3         1 24P       0.138800
     20 NAT         -3.7360    -8.1820     0.7240 n7         1 24P      -0.790200
     21 HAB         -0.5420    -0.0010    -0.9380 ha         1 24P       0.127500
     22 HAA          1.9230    -0.0010    -0.9380 ha         1 24P       0.128000
     23 HAF          3.1570    -0.0010     1.1960 ha         1 24P       0.128000
     24 HAE          1.9240     0.0030     3.3330 ha         1 24P       0.128000
     25 HAD         -0.5410     0.0050     3.3330 ha         1 24P       0.127500
     26 HAG         -2.5580     0.5130     2.0830 hc         1 24P       0.052700
     27 HAGA        -2.5590     0.5130     0.3140 hc         1 24P       0.052700
     28 HAM         -2.7490    -1.5560     3.3340 ha         1 24P       0.130500
     29 HAL         -3.5700    -3.8800     3.3400 ha         1 24P       0.138000
     30 HAI         -2.7610    -1.5540    -0.9360 ha         1 24P       0.130500
     31 HAJ         -3.5830    -3.8780    -0.9400 ha         1 24P       0.138000
     32 HAO         -5.0330    -5.3490    -0.6260 h1         1 24P       0.042200
     33 HAOA        -3.3660    -5.9390    -0.6270 h1         1 24P       0.042200
     34 HAP         -5.6730    -7.3500     0.7730 h1         1 24P       0.041700
     35 HAQ         -6.2030    -8.2650    -1.2490 hc         1 24P       0.049700
     36 HAQA        -4.9440    -7.2780    -2.0330 hc         1 24P       0.049700
     37 HAR         -4.8010   -10.0490    -1.7920 hc         1 24P       0.052700
     38 HARA        -3.3640    -8.9950    -1.9240 hc         1 24P       0.052700
     39 HAS         -4.6990   -10.0710     0.6070 h1         1 24P       0.041200
     40 HASA        -2.9640   -10.0840     0.1800 h1         1 24P       0.041200
     41 HNAT        -3.8710    -8.2390     1.7140 hn         1 24P       0.357800
@<TRIPOS>BOND
     1     1     2 ar  
     2     1     6 ar  
     3     2     3 ar  
     4     3     4 ar  
     5     4     5 ar  
     6     5     6 ar  
     7     6     7 1   
     8     7     8 1   
     9     8     9 ar  
    10     8    11 ar  
    11     9    10 ar  
    12    10    13 ar  
    13    11    12 ar  
    14    12    13 ar  
    15    13    14 1   
    16    14    15 1   
    17    15    16 1   
    18    16    17 1   
    19    16    20 1   
    20    17    18 1   
    21    18    19 1   
    22    19    20 1   
    23     1    21 1   
    24     2    22 1   
    25     3    23 1   
    26     4    24 1   
    27     5    25 1   
    28     7    26 1   
    29     7    27 1   
    30     9    28 1   
    31    10    29 1   
    32    11    30 1   
    33    12    31 1   
    34    15    32 1   
    35    15    33 1   
    36    16    34 1   
    37    17    35 1   
    38    17    36 1   
    39    18    37 1   
    40    18    38 1   
    41    19    39 1   
    42    19    40 1   
    43    20    41 1   
@<TRIPOS>SUBSTRUCTURE
     1 24P         1 TEMP              0 ****  ****    0 ROOT
