@<TRIPOS>MOLECULE
24P
   41    43     1     0     0
SMALL
bcc


@<TRIPOS>ATOM
      1 CAB          0.0000     0.0000     0.0000 ca         1 24P      -0.097000
      2 CAA          1.3820     0.0000     0.0000 ca         1 24P      -0.098000
      3 CAF          2.0740     0.0000     1.1970 ca         1 24P      -0.105000
      4 CAE          1.3830     0.0020     2.3950 ca         1 24P      -0.098000
      5 CAD          0.0000     0.0040     2.3940 ca         1 24P      -0.097000
      6 CAC         -0.6910     0.0010     1.1970 ca         1 24P      -0.084300
      7 CAG         -2.1980     0.0020     1.1980 c3         1 24P       0.095200
      8 CAH         -2.7020    -1.4180     1.1990 ca         1 24P      -0.131300
      9 CAM         -2.9320    -2.0680     2.3970 ca         1 24P      -0.053500
     10 CAL         -3.3920    -3.3710     2.4000 ca         1 24P      -0.175500
     11 CAI         -2.9380    -2.0670     0.0010 ca         1 24P      -0.053500
     12 CAJ         -3.4000    -3.3690    -0.0010 ca         1 24P      -0.175500
     13 CAK         -3.6250    -4.0250     1.2000 ca         1 24P       0.155100
     14 OAN         -4.0790    -5.3070     1.2000 os         1 24P      -0.305900
     15 CAO         -4.2960    -5.9180    -0.0730 c3         1 24P       0.207400
     16 CAP         -4.8030    -7.3480     0.1280 c3         1 24P       0.111500
     17 CAQ         -5.1600    -7.9740    -1.2320 c3         1 24P      -0.028400
     18 CAR         -4.2550    -9.2230    -1.3520 c3         1 24P      -0.025400
     19 CAS         -3.8940    -9.5310     0.1230 c3         1 24P       0.141800
     20 NAT         -3.7360    -8.1820     0.7240 n7         1 24P      -0.573200
     21 HAB         -0.5420    -0.0010    -0.9380 ha         1 24P       0.104000
     22 HAA          1.9230    -0.0010    -0.9380 ha         1 24P       0.101000
     23 HAF          3.1570    -0.0010     1.1960 ha         1 24P       0.101000
     24 HAE          1.9240     0.0030     3.3330 ha         1 24P       0.101000
     25 HAD         -0.5410     0.0050     3.3330 ha         1 24P       0.104000
     26 HAG         -2.5580     0.5130     2.0830 hc         1 24P       0.019700
     27 HAGA        -2.5590     0.5130     0.3140 hc         1 24P       0.019700
     28 HAM         -2.7490    -1.5560     3.3340 ha         1 24P       0.103000
     29 HAL         -3.5700    -3.8800     3.3400 ha         1 24P       0.117500
     30 HAI         -2.7610    -1.5540    -0.9360 ha         1 24P       0.103000
     31 HAJ         -3.5830    -3.8780    -0.9400 ha         1 24P       0.117500
     32 HAO         -5.0330    -5.3490    -0.6260 h1         1 24P       0.008700
     33 HAOA        -3.3660    -5.9390    -0.6270 h1         1 24P       0.008700
     34 HAP         -5.6730    -7.3500     0.7730 h1         1 24P       0.018700
     35 HAQ         -6.2030    -8.2650    -1.2490 hc         1 24P       0.019200
     36 HAQA        -4.9440    -7.2780    -2.0330 hc         1 24P       0.019200
     37 HAR         -4.8010   -10.0490    -1.7920 hc         1 24P       0.021700
     38 HARA        -3.3640    -8.9950    -1.9240 hc         1 24P       0.021700
     39 HAS         -4.6990   -10.0710     0.6070 h1         1 24P       0.010700
     40 HASA        -2.9640   -10.0840     0.1800 h1         1 24P       0.010700
     41 HNAT        -3.8710    -8.2390     1.7140 hn         1 24P       0.258800
@<TRIPOS>BOND
     1     1     2 ar  
     2     1     6 ar  
     3     1    21 1   
     4     2     3 ar  
     5     2    22 1   
     6     3     4 ar  
     7     3    23 1   
     8     4     5 ar  
     9     4    24 1   
    10     5     6 ar  
    11     5    25 1   
    12     6     7 1   
    13     7     8 1   
    14     7    26 1   
    15     7    27 1   
    16     8     9 ar  
    17     8    11 ar  
    18     9    10 ar  
    19     9    28 1   
    20    10    13 ar  
    21    10    29 1   
    22    11    12 ar  
    23    11    30 1   
    24    12    13 ar  
    25    12    31 1   
    26    13    14 1   
    27    14    15 1   
    28    15    16 1   
    29    15    32 1   
    30    15    33 1   
    31    16    17 1   
    32    16    20 1   
    33    16    34 1   
    34    17    18 1   
    35    17    35 1   
    36    17    36 1   
    37    18    19 1   
    38    18    37 1   
    39    18    38 1   
    40    19    20 1   
    41    19    39 1   
    42    19    40 1   
    43    20    41 1   
@<TRIPOS>SUBSTRUCTURE
     1 24P         1 TEMP              0 ****  ****    0 ROOT
