@<TRIPOS>MOLECULE
molecule
   67    70     1     0     0
SMALL
bcc


@<TRIPOS>ATOM
      1 C10          0.0000     0.0000     0.0000 ca         1 24Q      -0.093000
      2 C17         -2.6000    -0.1070     4.9880 ca         1 24Q       0.101600
      3 C20         -2.5520    -0.4820     7.3560 ca         1 24Q      -0.077000
      4 C21         -3.8950    -0.1030     7.4380 ca         1 24Q      -0.185600
      5 C22         -4.5850     0.2690     6.2810 ca         1 24Q      -0.036000
      6 C24         -5.2450    -0.5620     3.1500 ca         1 24Q      -0.083300
      7 C26         -6.4470    -1.0920     3.5800 ca         1 24Q      -0.127000
      8 C28         -5.0690    -2.2940     1.5070 ca         1 24Q      -0.119000
      9 C01          6.1080     2.4730     2.7250 c3         1 24Q      -0.077900
     10 C02          5.6010     1.2820     1.9080 c3         1 24Q      -0.081400
     11 C03          4.0790     1.1900     2.0310 c3         1 24Q      -0.063700
     12 C04          3.6950     1.0010     3.5000 c3         1 24Q      -0.081400
     13 C05          4.2030     2.1920     4.3170 c3         1 24Q      -0.077900
     14 C06          5.7250     2.2830     4.1940 c3         1 24Q      -0.081400
     15 C07          3.5720     0.0010     1.2150 c3         1 24Q      -0.124700
     16 C08          2.0650     0.0000     1.2090 ca         1 24Q       0.435600
     17 C09          1.3860     0.0000     0.0000 ca         1 24Q      -0.227300
     18 C11         -0.6610    -0.0010     1.2170 ca         1 24Q      -0.240300
     19 C12          0.0850    -0.0020     2.3930 ca         1 24Q       0.380800
     20 N13          1.4130    -0.0010     2.3500 nb         1 24Q      -0.634000
     21 C14         -0.6070    -0.0020     3.7030 c          1 24Q       0.568600
     22 O15          0.0360     0.0910     4.7300 o          1 24Q      -0.555100
     23 N16         -1.9490    -0.1080     3.7560 ns         1 24Q      -0.471100
     24 C18         -3.9390     0.2660     5.0650 ca         1 24Q      -0.133300
     25 C19         -1.9120    -0.4820     6.1370 ca         1 24Q      -0.153000
     26 C23         -4.6820     0.6670     3.8170 c3         1 24Q       0.010200
     27 C25         -6.9630    -2.2190     2.9680 ca         1 24Q      -0.119000
     28 C27         -4.5560    -1.1630     2.1140 ca         1 24Q      -0.127000
     29 C29         -6.2770    -2.8160     1.9280 ca         1 24Q      -0.127000
     30 C30         -4.5850    -0.1020     8.7430 c          1 24Q       0.701700
     31 O31         -5.7530     0.2280     8.8120 o          1 24Q      -0.580100
     32 N32         -3.9200    -0.4650     9.8570 ns         1 24Q      -0.653300
     33 S33         -4.6930    -0.4640    11.3220 s6         1 24Q       1.316600
     34 O34         -3.6940    -0.8690    12.2460 o          1 24Q      -0.610800
     35 O35         -5.2870     0.8260    11.4020 o          1 24Q      -0.610800
     36 C36         -5.9690    -1.7430    11.1610 c3         1 24Q      -0.237300
     37 H101        -0.5540     0.0000    -0.9310 ha         1 24Q       0.143000
     38 H201        -2.0150    -0.7730     8.2500 ha         1 24Q       0.131000
     39 H221        -5.6270     0.5610     6.3400 ha         1 24Q       0.158000
     40 H261        -6.9840    -0.6240     4.3950 ha         1 24Q       0.123500
     41 H281        -4.5300    -2.7630     0.6930 ha         1 24Q       0.132000
     42 H011         5.6570     3.3850     2.3510 hc         1 24Q       0.040200
     43 H012         7.1860     2.5350     2.6400 hc         1 24Q       0.040200
     44 H021         5.8700     1.4190     0.8680 hc         1 24Q       0.052200
     45 H022         6.0480     0.3710     2.2850 hc         1 24Q       0.052200
     46 H031         3.6330     2.1050     1.6590 hc         1 24Q       0.050700
     47 H041         4.1450     0.0890     3.8750 hc         1 24Q       0.052200
     48 H042         2.6170     0.9390     3.5850 hc         1 24Q       0.052200
     49 H051         3.9330     2.0550     5.3580 hc         1 24Q       0.040200
     50 H052         3.7560     3.1030     3.9400 hc         1 24Q       0.040200
     51 H061         6.1710     1.3690     4.5670 hc         1 24Q       0.038700
     52 H062         6.0820     3.1270     4.7720 hc         1 24Q       0.038700
     53 H071         3.9310    -0.9200     1.6570 hc         1 24Q       0.058200
     54 H072         3.9370     0.0790     0.1980 hc         1 24Q       0.058200
     55 H091         1.9330     0.0010    -0.9350 ha         1 24Q       0.146000
     56 H111        -1.7440    -0.0010     1.2540 ha         1 24Q       0.130000
     57 H161        -2.4800    -0.1730     2.9100 hn         1 24Q       0.335500
     58 H191        -0.8720    -0.7760     6.0730 ha         1 24Q       0.189000
     59 H231        -5.4910     1.3390     4.0790 hc         1 24Q       0.059200
     60 H232        -4.0030     1.1680     3.1380 hc         1 24Q       0.059200
     61 H251        -7.9080    -2.6310     3.3010 ha         1 24Q       0.132000
     62 H271        -3.6110    -0.7500     1.7800 ha         1 24Q       0.123500
     63 H291        -6.6810    -3.7010     1.4500 ha         1 24Q       0.133000
     64 H1          -2.9560    -0.7280     9.8010 hn         1 24Q       0.350500
     65 H361        -6.2210    -2.1270    12.1420 h1         1 24Q       0.103367
     66 H362        -5.5950    -2.5500    10.5430 h1         1 24Q       0.103367
     67 H363        -6.8530    -1.3170    10.7020 h1         1 24Q       0.103367
@<TRIPOS>BOND
     1     1    17 ar  
     2     1    18 ar  
     3     2    23 1   
     4     2    24 ar  
     5     2    25 ar  
     6     3     4 ar  
     7     3    25 ar  
     8     4     5 ar  
     9     4    30 1   
    10     5    24 ar  
    11     6     7 ar  
    12     6    26 1   
    13     6    28 ar  
    14     7    27 ar  
    15     8    28 ar  
    16     8    29 ar  
    17     9    10 1   
    18     9    14 1   
    19    10    11 1   
    20    11    12 1   
    21    11    15 1   
    22    12    13 1   
    23    13    14 1   
    24    15    16 1   
    25    16    17 ar  
    26    16    20 ar  
    27    18    19 ar  
    28    19    20 ar  
    29    19    21 1   
    30    21    22 2   
    31    21    23 1   
    32    24    26 1   
    33    27    29 ar  
    34    30    31 2   
    35    30    32 1   
    36    32    33 1   
    37    33    34 2   
    38    33    35 2   
    39    33    36 1   
    40     1    37 1   
    41     3    38 1   
    42     5    39 1   
    43     7    40 1   
    44     8    41 1   
    45     9    42 1   
    46     9    43 1   
    47    10    44 1   
    48    10    45 1   
    49    11    46 1   
    50    12    47 1   
    51    12    48 1   
    52    13    49 1   
    53    13    50 1   
    54    14    51 1   
    55    14    52 1   
    56    15    53 1   
    57    15    54 1   
    58    17    55 1   
    59    18    56 1   
    60    23    57 1   
    61    25    58 1   
    62    26    59 1   
    63    26    60 1   
    64    27    61 1   
    65    28    62 1   
    66    29    63 1   
    67    32    64 1   
    68    36    65 1   
    69    36    66 1   
    70    36    67 1   
@<TRIPOS>SUBSTRUCTURE
     1 24Q         1 TEMP              0 ****  ****    0 ROOT
