@<TRIPOS>MOLECULE
24R
   54    58     1     0     0
SMALL
bcc


@<TRIPOS>ATOM
      1 C            0.0000     0.0000     0.0000 cc         1 24R      -0.167300
      2 C1           1.3650     0.0000     0.0000 cd         1 24R      -0.109300
      3 C2           2.0540     0.0000     1.2320 cd         1 24R       0.434200
      4 N            1.3860     0.0000     2.3600 nc         1 24R      -0.557000
      5 C3           0.0480     0.0010     2.3690 cc         1 24R       0.197500
      6 N4          -0.6620     0.0010     1.1950 na         1 24R       0.561200
      7 N5          -2.0230     0.0020     1.5180 nc         1 24R      -0.726100
      8 C6          -0.8890     0.0020     3.4080 cd         1 24R      -0.310800
      9 C7          -2.1580     0.0020     2.8240 cd         1 24R       0.511500
     10 C8          -0.5900     0.0030     4.8620 cd         1 24R      -0.015800
     11 C9           0.2770    -0.8730     5.4360 cc         1 24R       0.043900
     12 S            0.3910    -0.6000     7.1150 ss         1 24R      -0.258800
     13 C10         -0.7590     0.7250     7.0360 cc         1 24R      -0.155700
     14 C11         -1.1680     0.8980     5.7450 cd         1 24R       0.017000
     15 C12         -1.2100     1.5240     8.1790 c          1 24R       0.660700
     16 N13         -0.7320     1.2640     9.4120 ns         1 24R      -0.270900
     17 O           -2.0130     2.4230     8.0150 o          1 24R      -0.614100
     18 C14          2.1170    -0.0010    -1.2810 cd         1 24R      -0.299300
     19 C15          2.9260     0.9950    -1.7420 cc         1 24R      -0.226300
     20 N16          3.4160     0.6040    -2.9360 na         1 24R       0.505400
     21 N17          2.9000    -0.6650    -3.2260 nc         1 24R      -0.633800
     22 C18          2.1280    -1.0340    -2.2390 cd         1 24R       0.415200
     23 C19          4.3290     1.3740    -3.7850 c3         1 24R       0.019600
     24 C20         -1.1810     2.0620    10.5550 c3         1 24R       0.026700
     25 C21         -0.1140     2.0300    11.6520 c3         1 24R      -0.094500
     26 N22          1.1410     2.5850    11.1300 nz         1 24R       0.073400
     27 C23         -2.4890     1.4850    11.0990 c3         1 24R      -0.033400
     28 C24         -2.2620     0.0390    11.5450 c3         1 24R      -0.036400
     29 C25         -1.1950     0.0060    12.6420 c3         1 24R      -0.013400
     30 C26          0.1130     0.5840    12.0980 c3         1 24R      -0.034400
     31 H           -0.5500     0.0000    -0.9330 h4         1 24R       0.160000
     32 H2           3.1370    -0.0000     1.2450 h4         1 24R      -0.003900
     33 H7          -3.0990     0.0020     3.3610 h4         1 24R       0.017800
     34 H9           0.8220    -1.6400     4.8990 h4         1 24R       0.170000
     35 H11         -1.8790     1.6570     5.4430 ha         1 24R       0.144000
     36 HN13        -0.0510     0.5430     9.5430 hn         1 24R       0.191500
     37 H15          3.1370     1.9310    -1.2400 h4         1 24R       0.148000
     38 H18          1.5850    -1.9690    -2.1720 h4         1 24R       0.009100
     39 H19          4.5430     0.8120    -4.6870 h1         1 24R       0.027033
     40 H19A         5.2510     1.5600    -3.2480 h1         1 24R       0.027033
     41 H19B         3.8670     2.3180    -4.0490 h1         1 24R       0.027033
     42 H20         -1.3440     3.0870    10.2440 h1         1 24R       0.068700
     43 H21         -0.4500     2.6180    12.4970 hx         1 24R       0.101700
     44 HN22         1.7300     2.8530    11.8930 hn         1 24R       0.226467
     45 HN2A         1.6070     1.8930    10.5760 hn         1 24R       0.226467
     46 H23         -3.2430     1.5070    10.3210 hc         1 24R       0.049200
     47 H23A        -2.8190     2.0760    11.9450 hc         1 24R       0.049200
     48 H24         -1.9270    -0.5500    10.7000 hc         1 24R       0.038700
     49 H24A        -3.1880    -0.3670    11.9320 hc         1 24R       0.038700
     50 H25         -1.5280     0.6000    13.4850 hc         1 24R       0.038200
     51 H25A        -1.0340    -1.0180    12.9560 hc         1 24R       0.038200
     52 H26          0.8670     0.5620    12.8770 hc         1 24R       0.034200
     53 H26A         0.4430    -0.0070    11.2520 hc         1 24R       0.034200
     54 H223         0.9440     3.4020    10.5870 hn         1 24R       0.226467
@<TRIPOS>BOND
     1     1     2 2   
     2     1     6 1   
     3     1    31 1   
     4     2     3 1   
     5     2    18 1   
     6     3     4 2   
     7     3    32 1   
     8     4     5 1   
     9     5     6 1   
    10     5     8 2   
    11     6     7 1   
    12     7     9 2   
    13     8     9 1   
    14     8    10 1   
    15     9    33 1   
    16    10    11 2   
    17    10    14 1   
    18    11    12 1   
    19    11    34 1   
    20    12    13 1   
    21    13    14 2   
    22    13    15 1   
    23    14    35 1   
    24    15    16 1   
    25    15    17 2   
    26    16    24 1   
    27    16    36 1   
    28    18    19 2   
    29    18    22 1   
    30    19    20 1   
    31    19    37 1   
    32    20    21 1   
    33    20    23 1   
    34    21    22 2   
    35    22    38 1   
    36    23    39 1   
    37    23    40 1   
    38    23    41 1   
    39    24    25 1   
    40    24    27 1   
    41    24    42 1   
    42    25    26 1   
    43    25    30 1   
    44    25    43 1   
    45    26    44 1   
    46    26    45 1   
    47    26    54 1   
    48    27    28 1   
    49    27    46 1   
    50    27    47 1   
    51    28    29 1   
    52    28    48 1   
    53    28    49 1   
    54    29    30 1   
    55    29    50 1   
    56    29    51 1   
    57    30    52 1   
    58    30    53 1   
@<TRIPOS>SUBSTRUCTURE
     1 24R         1 TEMP              0 ****  ****    0 ROOT
