@<TRIPOS>MOLECULE
molecule
   44    45     1     0     0
SMALL
bcc


@<TRIPOS>ATOM
      1 C1           0.0000     0.0000     0.0000 c3         1 24S       0.303500
      2 C2           1.5310     0.0000     0.0000 c3         1 24S       0.096100
      3 O2           2.0080    -1.1680    -0.6710 oh         1 24S      -0.590800
      4 C3           2.0330     0.0000     1.4470 c3         1 24S       0.115100
      5 O3           3.4610     0.0730     1.4570 oh         1 24S      -0.604800
      6 C4           1.4520     1.2140     2.1780 c3         1 24S       0.100100
      7 O4           1.8560     1.1850     3.5480 oh         1 24S      -0.598800
      8 C5          -0.0750     1.1680     2.0940 c3         1 24S       0.156100
      9 O5          -0.4750     1.1380     0.7220 os         1 24S      -0.413600
     10 C6          -0.6620     2.4090     2.7690 c3         1 24S       0.152400
     11 O6          -2.0880     2.3090     2.7940 oh         1 24S      -0.593800
     12 NAL         -0.4890     0.0580    -1.3800 ns         1 24S      -0.470900
     13 CAM         -1.6150    -0.5980    -1.7240 cs         1 24S       0.614400
     14 NAN         -2.0650    -0.5450    -2.9930 ns         1 24S      -0.326900
     15 SAO         -2.4750    -1.4980    -0.5480 s          1 24S      -0.633400
     16 NAP         -1.4220     0.2750    -3.9300 n2         1 24S      -0.319300
     17 CAQ         -1.9340     0.4360    -5.1110 ce         1 24S       0.233800
     18 CAR         -3.3700     0.1770    -5.3340 ca         1 24S      -0.187900
     19 CAS         -3.8390    -0.1170    -6.6160 ca         1 24S      -0.146200
     20 CAT         -5.1820    -0.3590    -6.8170 ca         1 24S      -0.066000
     21 CAU         -6.0640    -0.3110    -5.7510 ca         1 24S      -0.118000
     22 CAV         -5.6050    -0.0210    -4.4790 ca         1 24S      -0.079000
     23 CAW         -4.2640     0.2180    -4.2620 ca         1 24S      -0.157000
     24 NAX         -2.8970    -0.1680    -7.7570 no         1 24S       0.286200
     25 OAY         -1.6990    -0.0620    -7.5640 o          1 24S      -0.186000
     26 OAZ         -3.3210    -0.3160    -8.8900 o          1 24S      -0.186000
     27 H1          -0.3590    -0.9040     0.4770 h2         1 24S       0.121700
     28 H2           1.8910     0.8870    -0.5070 h1         1 24S       0.054700
     29 HO2          2.6720    -0.9230    -1.2940 ho         1 24S       0.416000
     30 H3           1.7090    -0.9080     1.9410 h1         1 24S       0.068700
     31 HO3          3.8110    -0.6710     1.9180 ho         1 24S       0.418000
     32 H4           1.8110     2.1220     1.7090 h1         1 24S       0.055700
     33 HO4          2.5740     1.7820     3.6770 ho         1 24S       0.415000
     34 H5          -0.4360     0.2760     2.5920 h1         1 24S       0.075700
     35 H6          -0.3720     3.2930     2.2140 h1         1 24S       0.036700
     36 H6A         -0.2880     2.4790     3.7830 h1         1 24S       0.036700
     37 HO6         -2.4420     3.0030     3.3250 ho         1 24S       0.403000
     38 HNAL        -0.0020     0.6070    -2.0600 hn         1 24S       0.340500
     39 HNAN        -2.8140    -1.1410    -3.2830 hn         1 24S       0.351500
     40 HAQ         -2.1700    -0.5750    -5.4200 h4         1 24S       0.171800
     41 HAT         -5.5480    -0.5870    -7.8110 ha         1 24S       0.173000
     42 HAU         -7.1180    -0.5000    -5.9140 ha         1 24S       0.155000
     43 HAV         -6.3010     0.0120    -3.6490 ha         1 24S       0.155000
     44 HAW         -3.9070     0.4450    -3.2650 ha         1 24S       0.169000
@<TRIPOS>BOND
     1     1     2 1
     2     1     9 1
     3     2     4 1
     4     3     2 1
     5     4     5 1
     6     4     6 1
     7     6     7 1
     8     8     6 1
     9     8    10 1
    10     9     8 1
    11    11    10 1
    12    12     1 1
    13    13    12 1
    14    13    15 2
    15    14    13 1
    16    16    14 1
    17    17    16 2
    18    18    17 1
    19    18    19 ar
    20    19    24 1
    21    20    19 ar
    22    21    20 ar
    23    22    21 ar
    24    22    23 ar
    25    23    18 ar
    26    24    26 1
    27    24    25 1
    28     1    27 1
    29     2    28 1
    30     3    29 1
    31     4    30 1
    32     5    31 1
    33     6    32 1
    34     7    33 1
    35     8    34 1
    36    10    35 1
    37    10    36 1
    38    11    37 1
    39    12    38 1
    40    14    39 1
    41    17    40 1
    42    20    41 1
    43    21    42 1
    44    22    43 1
    45    23    44 1
@<TRIPOS>SUBSTRUCTURE
     1 24S         1 TEMP              0 ****  ****    0 ROOT
