@<TRIPOS>MOLECULE
24S
   44    45     1     0     0
SMALL
bcc


@<TRIPOS>ATOM
      1 C1           0.0000     0.0000     0.0000 c3         1 24S       0.170500
      2 C2           1.5310     0.0000     0.0000 c3         1 24S       0.133100
      3 O2           2.0080    -1.1680    -0.6710 oh         1 24S      -0.571800
      4 C3           2.0330     0.0000     1.4470 c3         1 24S       0.152100
      5 O3           3.4610     0.0730     1.4570 oh         1 24S      -0.588800
      6 C4           1.4520     1.2140     2.1780 c3         1 24S       0.137100
      7 O4           1.8560     1.1850     3.5480 oh         1 24S      -0.578800
      8 C5          -0.0750     1.1680     2.0940 c3         1 24S       0.174100
      9 O5          -0.4750     1.1380     0.7220 os         1 24S      -0.390600
     10 C6          -0.6620     2.4090     2.7690 c3         1 24S       0.224400
     11 O6          -2.0880     2.3090     2.7940 oh         1 24S      -0.574800
     12 NAL         -0.4890     0.0580    -1.3800 ns         1 24S      -0.006900
     13 CAM         -1.6150    -0.5980    -1.7240 cs         1 24S       0.313400
     14 NAN         -2.0650    -0.5450    -2.9930 ns         1 24S       0.090100
     15 SAO         -2.4750    -1.4980    -0.5480 s          1 24S      -0.697400
     16 NAP         -1.4220     0.2750    -3.9300 n2         1 24S      -0.555300
     17 CAQ         -1.9340     0.4360    -5.1110 ce         1 24S       0.465800
     18 CAR         -3.3700     0.1770    -5.3340 ca         1 24S      -0.109900
     19 CAS         -3.8390    -0.1170    -6.6160 ca         1 24S      -0.427200
     20 CAT         -5.1820    -0.3590    -6.8170 ca         1 24S      -0.004000
     21 CAU         -6.0640    -0.3110    -5.7510 ca         1 24S      -0.105000
     22 CAV         -5.6050    -0.0210    -4.4790 ca         1 24S      -0.022000
     23 CAW         -4.2640     0.2180    -4.2620 ca         1 24S      -0.134000
     24 NAX         -2.8970    -0.1680    -7.7570 no         1 24S       1.047200
     25 OAY         -1.6990    -0.0620    -7.5640 o          1 24S      -0.445000
     26 OAZ         -3.3210    -0.3160    -8.8900 o          1 24S      -0.445000
     27 H1          -0.3590    -0.9040     0.4770 h2         1 24S       0.102700
     28 H2           1.8910     0.8870    -0.5070 h1         1 24S       0.017700
     29 HO2          2.6720    -0.9230    -1.2940 ho         1 24S       0.399000
     30 H3           1.7090    -0.9080     1.9410 h1         1 24S       0.033700
     31 HO3          3.8110    -0.6740     1.9130 ho         1 24S       0.404000
     32 H4           1.8110     2.1220     1.7090 h1         1 24S       0.019700
     33 HO4          2.5520     1.8060     3.6840 ho         1 24S       0.399000
     34 H5          -0.4360     0.2760     2.5920 h1         1 24S       0.042700
     35 H6          -0.2880     2.4790     3.7830 h1         1 24S      -0.003300
     36 H6A         -0.3720     3.2930     2.2150 h1         1 24S      -0.003300
     37 HO6         -2.4420     2.9990     3.3300 ho         1 24S       0.387000
     38 HNAL        -0.0120     0.6210    -2.0560 hn         1 24S       0.179500
     39 HNAN        -2.8160    -1.1390    -3.2820 hn         1 24S       0.215500
     40 HAQ         -1.4150     1.0660    -5.8230 h4         1 24S       0.036800
     41 HAT         -5.5480    -0.5870    -7.8110 ha         1 24S       0.136000
     42 HAU         -7.1180    -0.5000    -5.9140 ha         1 24S       0.120000
     43 HAV         -6.3010     0.0120    -3.6490 ha         1 24S       0.119000
     44 HAW         -3.9070     0.4450    -3.2650 ha         1 24S       0.142000
@<TRIPOS>BOND
     1     1     2 1   
     2     1     9 1   
     3     1    12 1   
     4     1    27 1   
     5     2     3 1   
     6     2     4 1   
     7     2    28 1   
     8     3    29 1   
     9     4     5 1   
    10     4     6 1   
    11     4    30 1   
    12     5    31 1   
    13     6     7 1   
    14     6     8 1   
    15     6    32 1   
    16     7    33 1   
    17     8     9 1   
    18     8    10 1   
    19     8    34 1   
    20    10    11 1   
    21    10    35 1   
    22    10    36 1   
    23    11    37 1   
    24    12    13 1   
    25    12    38 1   
    26    13    14 1   
    27    13    15 2   
    28    14    16 1   
    29    14    39 1   
    30    16    17 2   
    31    17    18 1   
    32    17    40 1   
    33    18    19 ar  
    34    18    23 ar  
    35    19    20 ar  
    36    19    24 1   
    37    20    21 ar  
    38    20    41 1   
    39    21    22 ar  
    40    21    42 1   
    41    22    23 ar  
    42    22    43 1   
    43    23    44 1   
    44    24    25 1   
    45    24    26 1   
@<TRIPOS>SUBSTRUCTURE
     1 24S         1 TEMP              0 ****  ****    0 ROOT
