@<TRIPOS>MOLECULE
24T
   13    13     1     0     0
SMALL
bcc


@<TRIPOS>ATOM
      1 S1           0.0000     0.0000     0.0000 ss         1 24T      -0.414300
      2 C2           1.7350     0.0000     0.0000 cc         1 24T       0.574300
      3 N3           2.0140     0.0000     1.2880 nd         1 24T      -0.643000
      4 C4           1.0530    -0.0080     2.1940 cd         1 24T       0.339600
      5 C5          -0.2330    -0.0070     1.7700 cc         1 24T      -0.100400
      6 N            2.6060     0.0050    -1.0790 nv         1 24T      -0.486500
      7 CM           1.3800    -0.0150     3.6650 c3         1 24T      -0.023400
      8 H5          -1.1500    -0.0110     2.3460 h4         1 24T       0.171000
      9 HN1          2.4540     0.6340    -1.8420 hn         1 24T       0.273300
     10 HN2          3.3760    -0.6340    -1.1030 hn         1 24T       0.273300
     11 HM1          0.9790    -0.9130     4.1200 hc         1 24T       0.011700
     12 HM2          0.9400     0.8560     4.1360 hc         1 24T       0.011700
     13 HM3          2.4550     0.0070     3.7960 hc         1 24T       0.011700
@<TRIPOS>BOND
     1     1     2 1   
     2     1     5 1   
     3     2     3 2   
     4     2     6 1   
     5     3     4 1   
     6     4     5 2   
     7     4     7 1   
     8     5     8 1   
     9     6     9 1   
    10     6    10 1   
    11     7    11 1   
    12     7    12 1   
    13     7    13 1   
@<TRIPOS>SUBSTRUCTURE
     1 24T         1 TEMP              0 ****  ****    0 ROOT
