@<TRIPOS>MOLECULE
24U
   48    49     1     0     0
SMALL
bcc


@<TRIPOS>ATOM
      1 C17          0.0000     0.0000     0.0000 c3         1 24U       0.003900
      2 C33          1.5300     0.0000     0.0000 c3         1 24U      -0.015400
      3 C15          2.0410     0.0000     1.4420 c3         1 24U      -0.095400
      4 C14          3.5470    -0.0000     1.4420 c          1 24U       0.616100
      5 O32          4.1540    -0.0010     0.3910 o          1 24U      -0.634100
      6 N1           4.2210     0.0000     2.6090 n          1 24U      -0.152800
      7 C1           5.6850     0.0000     2.7540 c3         1 24U      -0.027300
      8 C7           6.2650    -1.2200     2.0870 c          1 24U       0.567100
      9 O22          5.5330    -2.0190     1.5410 o          1 24U      -0.596100
     10 C2           5.9950    -0.0260     4.2650 c3         1 24U      -0.032400
     11 C3           4.6950    -0.6090     4.8780 c3         1 24U      -0.031400
     12 C4           3.6130     0.0070     3.9520 c3         1 24U       0.050000
     13 N23          7.5970    -1.4240     2.0970 ns         1 24U      -0.220900
     14 C24          8.1610    -2.6110     1.4500 c3         1 24U       0.102300
     15 C25          9.6610    -2.6010     1.6040 ca         1 24U      -0.053300
     16 C26         10.4480    -1.9820     0.6480 ca         1 24U      -0.055500
     17 C27         11.8200    -1.9700     0.7840 ca         1 24U      -0.073500
     18 C28         12.4160    -2.5840     1.8860 ca         1 24U      -0.231900
     19 C21         13.8880    -2.5740     2.0370 ce         1 24U       0.212800
     20 N47         14.6310    -1.9910     1.1400 n2         1 24U      -0.487100
     21 N46         14.4730    -3.1820     3.1280 nz         1 24U       0.190400
     22 C29         11.6170    -3.2070     2.8460 ca         1 24U      -0.073500
     23 C30         10.2440    -3.2070     2.7010 ca         1 24U      -0.055500
     24 H17         -0.3610     0.8820     0.5150 hc         1 24U       0.001033
     25 H17A        -0.3610    -0.8870     0.5070 hc         1 24U       0.001033
     26 H17B        -0.3610     0.0050    -1.0210 hc         1 24U       0.001033
     27 H33          1.8910    -0.8850    -0.5110 hc         1 24U       0.028200
     28 H33A         1.8910     0.8850    -0.5110 hc         1 24U       0.028200
     29 H15          1.6800     0.8850     1.9530 hc         1 24U       0.029700
     30 H15A         1.6790    -0.8840     1.9530 hc         1 24U       0.029700
     31 H1           6.0970     0.8990     2.3110 h1         1 24U       0.044700
     32 H2           6.1750     0.9770     4.6350 hc         1 24U       0.022200
     33 H2A          6.8380    -0.6750     4.4700 hc         1 24U       0.022200
     34 H3           4.6880    -1.6900     4.8130 hc         1 24U       0.030200
     35 H3A          4.5650    -0.2730     5.9000 hc         1 24U       0.030200
     36 H4           3.3910     1.0220     4.2590 h1         1 24U       0.024700
     37 H4A          2.7180    -0.6020     3.9630 h1         1 24U       0.024700
     38 HN23         8.2030    -0.7560     2.5310 hn         1 24U       0.173500
     39 H24          7.9070    -2.6030     0.3970 h1         1 24U       0.042700
     40 H24A         7.7560    -3.5020     1.9130 h1         1 24U       0.042700
     41 H26          9.9850    -1.5060    -0.2080 ha         1 24U       0.134000
     42 H27         12.4350    -1.4850     0.0350 ha         1 24U       0.099500
     43 HN47        14.2080    -1.5500     0.3480 hn         1 24U       0.382400
     44 HN46        14.1450    -2.7480     3.9680 hn         1 24U       0.221800
     45 HN4A        14.2320    -4.1530     3.1380 hn         1 24U       0.221800
     46 H29         12.0720    -3.6830     3.7050 ha         1 24U       0.099500
     47 H30          9.6230    -3.6900     3.4450 ha         1 24U       0.134000
     48 H463        15.4670    -3.0860     3.0700 hn         1 24U       0.221800
@<TRIPOS>BOND
     1     1     2 1   
     2     1    24 1   
     3     1    25 1   
     4     1    26 1   
     5     2     3 1   
     6     2    27 1   
     7     2    28 1   
     8     3     4 1   
     9     3    29 1   
    10     3    30 1   
    11     4     5 2   
    12     4     6 1   
    13     6     7 1   
    14     6    12 1   
    15     7     8 1   
    16     7    10 1   
    17     7    31 1   
    18     8     9 2   
    19     8    13 1   
    20    10    11 1   
    21    10    32 1   
    22    10    33 1   
    23    11    12 1   
    24    11    34 1   
    25    11    35 1   
    26    12    36 1   
    27    12    37 1   
    28    13    14 1   
    29    13    38 1   
    30    14    15 1   
    31    14    39 1   
    32    14    40 1   
    33    15    16 ar  
    34    15    23 ar  
    35    16    17 ar  
    36    16    41 1   
    37    17    18 ar  
    38    17    42 1   
    39    18    19 1   
    40    18    22 ar  
    41    19    20 2   
    42    19    21 1   
    43    20    43 1   
    44    21    44 1   
    45    21    45 1   
    46    21    48 1   
    47    22    23 ar  
    48    22    46 1   
    49    23    47 1   
@<TRIPOS>SUBSTRUCTURE
     1 24U         1 TEMP              0 ****  ****    0 ROOT
