@<TRIPOS>MOLECULE
molecule
   48    49     1     0     0
SMALL
bcc


@<TRIPOS>ATOM
      1 C17          0.0000     0.0000     0.0000 c3         1 24U      -0.095100
      2 C33          1.5300     0.0000     0.0000 c3         1 24U      -0.070400
      3 C15          2.0410     0.0000     1.4420 c3         1 24U      -0.148400
      4 C14          3.5470    -0.0000     1.4420 c          1 24U       0.688100
      5 O32          4.1540    -0.0010     0.3910 o          1 24U      -0.593100
      6 N1           4.2210     0.0000     2.6090 n          1 24U      -0.486800
      7 C1           5.6850     0.0000     2.7540 c3         1 24U       0.047700
      8 C7           6.2650    -1.2200     2.0870 c          1 24U       0.651100
      9 O22          5.5330    -2.0190     1.5410 o          1 24U      -0.560100
     10 C2           5.9950    -0.0260     4.2650 c3         1 24U      -0.094400
     11 C3           4.6950    -0.6090     4.8780 c3         1 24U      -0.095400
     12 C4           3.6130     0.0070     3.9520 c3         1 24U       0.098000
     13 N23          7.5970    -1.4240     2.0970 ns         1 24U      -0.601900
     14 C24          8.1610    -2.6110     1.4500 c3         1 24U       0.152300
     15 C25          9.6610    -2.6010     1.6040 ca         1 24U      -0.048300
     16 C26         10.4480    -1.9820     0.6480 ca         1 24U      -0.102000
     17 C27         11.8200    -1.9700     0.7840 ca         1 24U      -0.086000
     18 C28         12.4160    -2.5840     1.8860 ca         1 24U      -0.197900
     19 C21         13.8880    -2.5740     2.0370 ce         1 24U       0.543800
     20 N47         14.6310    -1.9910     1.1400 n2         1 24U      -0.681100
     21 N46         14.4730    -3.1820     3.1280 nz         1 24U      -0.801600
     22 C29         11.6170    -3.2070     2.8460 ca         1 24U      -0.086000
     23 C30         10.2440    -3.2070     2.7010 ca         1 24U      -0.102000
     24 H17         -0.3610    -0.0010    -1.0210 hc         1 24U       0.035700
     25 H17A        -0.3610     0.8850     0.5090 hc         1 24U       0.035700
     26 H17B        -0.3610    -0.8840     0.5120 hc         1 24U       0.035700
     27 H33          1.8910     0.8850    -0.5110 hc         1 24U       0.058200
     28 H33A         1.8910    -0.8850    -0.5110 hc         1 24U       0.058200
     29 H15          1.6800     0.8850     1.9530 hc         1 24U       0.061200
     30 H15A         1.6790    -0.8840     1.9530 hc         1 24U       0.061200
     31 H1           6.0970     0.8990     2.3110 h1         1 24U       0.076700
     32 H2           6.1750     0.9770     4.6350 hc         1 24U       0.054700
     33 H2A          6.8380    -0.6750     4.4700 hc         1 24U       0.054700
     34 H3           4.5650    -0.2730     5.9000 hc         1 24U       0.063200
     35 H3A          4.6880    -1.6900     4.8130 hc         1 24U       0.063200
     36 H4           2.7180    -0.6020     3.9630 h1         1 24U       0.054200
     37 H4A          3.3910     1.0220     4.2590 h1         1 24U       0.054200
     38 HN23         8.2030    -0.7560     2.5310 hn         1 24U       0.310500
     39 H24          7.9070    -2.6030     0.3970 h1         1 24U       0.074700
     40 H24A         7.7560    -3.5020     1.9130 h1         1 24U       0.074700
     41 H26          9.9850    -1.5060    -0.2080 ha         1 24U       0.167500
     42 H27         12.4350    -1.4850     0.0350 ha         1 24U       0.139000
     43 HN47        15.6270    -1.9830     1.2410 hn         1 24U       0.433400
     44 HN46        15.4670    -3.0810     3.0720 hn         1 24U       0.465133
     45 HN4A        14.1400    -2.7520     3.9680 hn         1 24U       0.465133
     46 H29         12.0720    -3.6830     3.7050 ha         1 24U       0.139000
     47 H30          9.6230    -3.6900     3.4450 ha         1 24U       0.167500
     48 H463        14.2360    -4.1540     3.1350 hn         1 24U       0.465133
@<TRIPOS>BOND
     1     7     6 1
     2    12     6 1
     3     6     4 1
     4    10     7 1
     5     8     7 1
     6     7    31 1
     7     9     8 2
     8     8    13 1
     9    14    13 1
    10    13    38 1
    11    14    15 1
    12    14    39 1
    13    14    40 1
    14    15    23 ar
    15    15    16 ar
    16    16    17 ar
    17    16    41 1
    18    17    18 ar
    19    17    42 1
    20    22    18 ar
    21    18    19 1
    22    19    20 2
    23    19    21 1
    24    21    44 1
    25    21    45 1
    26    20    43 1
    27    23    22 ar
    28    22    46 1
    29    23    47 1
    30    10    11 1
    31    10    32 1
    32    10    33 1
    33    11    12 1
    34    11    34 1
    35    11    35 1
    36    12    36 1
    37    12    37 1
    38     4     5 2
    39     4     3 1
    40     3     2 1
    41     3    29 1
    42     3    30 1
    43     2     1 1
    44     2    27 1
    45     2    28 1
    46     1    24 1
    47     1    25 1
    48     1    26 1
    49    48    21 1
@<TRIPOS>SUBSTRUCTURE
     1 24U         1 TEMP              0 ****  ****    0 ROOT
