@<TRIPOS>MOLECULE
24V
   57    62     1     0     0
SMALL
bcc


@<TRIPOS>ATOM
      1 N1           0.0000     0.0000     0.0000 nb         1 24V      -0.565000
      2 C10          4.4530    -0.0010     0.5080 c3         1 24V      -0.064000
      3 C13          6.7880    -0.7010     0.4140 c3         1 24V      -0.020400
      4 C17          4.2940     0.1990     8.9960 ca         1 24V       0.369200
      5 C20          6.7710     0.2190     7.8530 ca         1 24V      -0.246300
      6 C21          3.8510     0.3730    11.5880 c3         1 24V       0.135300
      7 C22          3.7410     0.4010    13.1130 c3         1 24V       0.145300
      8 C24          5.9260     1.6130    11.7130 c3         1 24V       0.135300
      9 C02          1.3180     0.0000     0.0000 ca         1 24V       0.401200
     10 C03          2.0240     0.0000     1.1950 ca         1 24V      -0.297500
     11 C04          1.3010    -0.0010     2.4020 cp         1 24V      -0.026000
     12 C05         -0.0920    -0.0000     2.3480 ca         1 24V      -0.168300
     13 C06          2.2960    -0.0000     3.4820 cp         1 24V      -0.389600
     14 C07          2.2320    -0.0010     4.8710 ca         1 24V       0.539200
     15 N01          3.3610    -0.0010     5.5610 nb         1 24V      -0.645000
     16 C08          4.5370    -0.0020     4.9470 ca         1 24V       0.715900
     17 N02          4.6450    -0.0010     3.6280 nb         1 24V      -0.708000
     18 C09          3.5610    -0.0010     2.8590 ca         1 24V       0.369800
     19 N03          3.3750    -0.0010     1.4990 na         1 24V       0.300000
     20 C11          5.3420     1.2430     0.6950 c3         1 24V      -0.039400
     21 C12          6.7600     0.7270     1.0120 c3         1 24V      -0.020400
     22 C14          5.3630    -1.2280     0.7180 c3         1 24V      -0.039400
     23 N04          5.6910    -0.0020     5.7120 nu         1 24V      -0.385600
     24 C16          5.6070     0.1090     7.1000 ca         1 24V       0.445200
     25 N05          4.4200     0.1080     7.6860 nb         1 24V      -0.535000
     26 C18          5.4110     0.3070     9.8110 ca         1 24V      -0.130700
     27 C19          6.6770     0.3160     9.2290 ca         1 24V      -0.066000
     28 N06          5.2680     0.4030    11.2010 nh         1 24V      -0.356000
     29 N07          4.3990     1.6110    13.6270 n7         1 24V      -0.584200
     30 C23          5.8160     1.6400    13.2400 c3         1 24V       0.145300
     31 C2          -0.7090    -0.0010     1.1150 ca         1 24V       0.372200
     32 H1           4.0430    -0.0130    -0.4940 h1         1 24V       0.046700
     33 H2           6.9620    -0.6640    -0.6550 hc         1 24V       0.019450
     34 H3           7.5350    -1.3090     0.9110 hc         1 24V       0.019450
     35 H5           7.7390     0.2230     7.3670 ha         1 24V       0.114000
     36 H6           3.3460     1.2380    11.1740 h1         1 24V       0.024200
     37 H7           3.3940    -0.5330    11.2100 h1         1 24V       0.024200
     38 H8           2.6960     0.4110    13.3990 h1         1 24V       0.012450
     39 H9           4.2260    -0.4750    13.5260 h1         1 24V       0.012450
     40 H10          5.4400     2.4890    11.3020 h1         1 24V       0.024200
     41 H11          6.9700     1.6050    11.4270 h1         1 24V       0.024200
     42 H12          1.8540     0.0010    -0.9410 h4         1 24V      -0.020900
     43 H13         -0.6790    -0.0010     3.2590 ha         1 24V       0.113000
     44 H14          1.2760    -0.0000     5.3790 h4         1 24V      -0.018900
     45 H15          4.9730     1.8400     1.5200 hc         1 24V       0.028200
     46 H16          5.3560     1.8270    -0.2170 hc         1 24V       0.028200
     47 H17          7.5050     1.3510     0.5330 hc         1 24V       0.019450
     48 H18          6.9180     0.6910     2.0830 hc         1 24V       0.019450
     49 H19          5.3000    -1.5750     1.7420 hc         1 24V       0.028200
     50 H20          5.0970    -2.0180     0.0250 hc         1 24V       0.028200
     51 H21          6.5840    -0.0970     5.2710 hn         1 24V       0.292800
     52 H22          7.5680     0.4010     9.8410 ha         1 24V       0.117000
     53 H23          4.3250     1.6320    14.6250 hn         1 24V       0.254800
     54 H25          6.3200     0.7750    13.6530 h1         1 24V       0.012450
     55 H26          6.2730     2.5470    13.6180 h1         1 24V       0.012450
     56 H27         -1.7910    -0.0010     1.0600 h4         1 24V      -0.017900
     57 H4           3.3060     0.1940     9.4400 h4         1 24V      -0.002900
@<TRIPOS>BOND
     1     1     9 ar  
     2     1    31 ar  
     3     2    19 1   
     4     2    20 1   
     5     2    22 1   
     6     2    32 1   
     7     3    21 1   
     8     3    22 1   
     9     3    33 1   
    10     3    34 1   
    11     4    25 ar  
    12     4    26 ar  
    13     4    57 1   
    14     5    24 ar  
    15     5    27 ar  
    16     5    35 1   
    17     6     7 1   
    18     6    28 1   
    19     6    36 1   
    20     6    37 1   
    21     7    29 1   
    22     7    38 1   
    23     7    39 1   
    24     8    28 1   
    25     8    30 1   
    26     8    40 1   
    27     8    41 1   
    28     9    10 ar  
    29     9    42 1   
    30    10    11 ar  
    31    10    19 1   
    32    11    12 ar  
    33    11    13 1   
    34    12    31 ar  
    35    12    43 1   
    36    13    14 ar  
    37    13    18 ar  
    38    14    15 ar  
    39    14    44 1   
    40    15    16 ar  
    41    16    17 ar  
    42    16    23 1   
    43    17    18 ar  
    44    18    19 1   
    45    20    21 1   
    46    20    45 1   
    47    20    46 1   
    48    21    47 1   
    49    21    48 1   
    50    22    49 1   
    51    22    50 1   
    52    23    24 1   
    53    23    51 1   
    54    24    25 ar  
    55    26    27 ar  
    56    26    28 1   
    57    27    52 1   
    58    29    30 1   
    59    29    53 1   
    60    30    54 1   
    61    30    55 1   
    62    31    56 1   
@<TRIPOS>SUBSTRUCTURE
     1 24V         1 TEMP              0 ****  ****    0 ROOT
