@<TRIPOS>MOLECULE
molecule
   57    62     1     0     0
SMALL
bcc


@<TRIPOS>ATOM
      1 N1           0.0000     0.0000     0.0000 nb         1 24V      -0.668000
      2 C10          4.4530    -0.0010     0.5080 c3         1 24V       0.059000
      3 C13          6.7880    -0.7010     0.4140 c3         1 24V      -0.081400
      4 C17          4.2940     0.1990     8.9960 ca         1 24V       0.401200
      5 C20          6.7710     0.2190     7.8530 ca         1 24V      -0.275300
      6 C21          3.8510     0.3730    11.5880 c3         1 24V       0.164300
      7 C22          3.7410     0.4010    13.1130 c3         1 24V       0.155300
      8 C24          5.9260     1.6130    11.7130 c3         1 24V       0.164300
      9 C02          1.3180     0.0000     0.0000 ca         1 24V       0.409200
     10 C03          2.0240     0.0000     1.1950 ca         1 24V      -0.127500
     11 C04          1.3010    -0.0010     2.4020 cp         1 24V      -0.035000
     12 C05         -0.0920    -0.0000     2.3480 ca         1 24V      -0.206300
     13 C06          2.2960    -0.0000     3.4820 cp         1 24V      -0.390600
     14 C07          2.2320    -0.0010     4.8710 ca         1 24V       0.540200
     15 N01          3.3610    -0.0010     5.5610 nb         1 24V      -0.738000
     16 C08          4.5370    -0.0020     4.9470 ca         1 24V       0.959900
     17 N02          4.6450    -0.0010     3.6280 nb         1 24V      -0.834000
     18 C09          3.5610    -0.0010     2.8590 ca         1 24V       0.582800
     19 N03          3.3750    -0.0010     1.4990 na         1 24V      -0.163000
     20 C11          5.3420     1.2430     0.6950 c3         1 24V      -0.094400
     21 C12          6.7600     0.7270     1.0120 c3         1 24V      -0.081400
     22 C14          5.3630    -1.2280     0.7180 c3         1 24V      -0.094400
     23 N04          5.6910    -0.0020     5.7120 nu         1 24V      -0.848600
     24 C16          5.6070     0.1090     7.1000 ca         1 24V       0.652200
     25 N05          4.4200     0.1080     7.6860 nb         1 24V      -0.656000
     26 C18          5.4110     0.3070     9.8110 ca         1 24V      -0.056700
     27 C19          6.6770     0.3160     9.2290 ca         1 24V      -0.088000
     28 N06          5.2680     0.4030    11.2010 nh         1 24V      -0.593000
     29 N07          4.3990     1.6110    13.6270 n7         1 24V      -0.821200
     30 C23          5.8160     1.6400    13.2400 c3         1 24V       0.155300
     31 C2          -0.7090    -0.0010     1.1150 ca         1 24V       0.387200
     32 H1           4.0430    -0.0130    -0.4940 h1         1 24V       0.069700
     33 H2           6.9620    -0.6640    -0.6550 hc         1 24V       0.048950
     34 H3           7.5350    -1.3090     0.9110 hc         1 24V       0.048950
     35 H5           7.7390     0.2230     7.3670 ha         1 24V       0.136000
     36 H6           3.3460     1.2380    11.1740 h1         1 24V       0.049450
     37 H7           3.3940    -0.5330    11.2100 h1         1 24V       0.049450
     38 H8           2.6960     0.4110    13.3990 h1         1 24V       0.041200
     39 H9           4.2260    -0.4750    13.5260 h1         1 24V       0.041200
     40 H10          5.4400     2.4890    11.3020 h1         1 24V       0.049450
     41 H11          6.9700     1.6050    11.4270 h1         1 24V       0.049450
     42 H12          1.8540     0.0010    -0.9410 h4         1 24V       0.021100
     43 H13         -0.6790    -0.0010     3.2590 ha         1 24V       0.140000
     44 H14          1.2760    -0.0000     5.3790 h4         1 24V       0.033100
     45 H15          4.9730     1.8400     1.5200 hc         1 24V       0.058700
     46 H16          5.3560     1.8270    -0.2170 hc         1 24V       0.058700
     47 H17          7.5050     1.3510     0.5330 hc         1 24V       0.048950
     48 H18          6.9180     0.6910     2.0830 hc         1 24V       0.048950
     49 H19          5.3000    -1.5750     1.7420 hc         1 24V       0.058700
     50 H20          5.0970    -2.0180     0.0250 hc         1 24V       0.058700
     51 H21          6.5840    -0.0970     5.2710 hn         1 24V       0.471800
     52 H22          7.5680     0.4010     9.8410 ha         1 24V       0.145000
     53 H23          4.3250     1.6320    14.6250 hn         1 24V       0.356800
     54 H25          6.3200     0.7750    13.6530 h1         1 24V       0.041200
     55 H26          6.2730     2.5470    13.6180 h1         1 24V       0.041200
     56 H27         -1.7910    -0.0010     1.0600 h4         1 24V       0.026100
     57 H4           3.3060     0.1940     9.4400 h4         1 24V       0.032100
@<TRIPOS>BOND
     1     3    21 1
     2     3    22 1
     3    21    20 1
     4    22     2 1
     5    29    30 1
     6    29     7 1
     7    30     8 1
     8    20     2 1
     9     2    19 1
    10     8    28 1
    11     9     1 ar
    12     9    10 ar
    13     7     6 1
    14     1    31 ar
    15     6    28 1
    16    19    10 1
    17    19    18 1
    18    10    11 ar
    19    28    26 1
    20    31    12 ar
    21    27    26 ar
    22    27     5 ar
    23    26     4 ar
    24    18    17 ar
    25    18    13 ar
    26    11    12 ar
    27    11    13 1
    28     5    24 ar
    29    17    16 ar
    30     4    25 ar
    31    13    14 ar
    32    24    25 ar
    33    24    23 1
    34    16    23 1
    35    16    15 ar
    36    14    15 ar
    37     2    32 1
    38     3    33 1
    39     3    34 1
    40     4    57 1
    41     5    35 1
    42     6    36 1
    43     6    37 1
    44     7    38 1
    45     7    39 1
    46     8    40 1
    47     8    41 1
    48     9    42 1
    49    12    43 1
    50    14    44 1
    51    20    45 1
    52    20    46 1
    53    21    47 1
    54    21    48 1
    55    22    49 1
    56    22    50 1
    57    23    51 1
    58    27    52 1
    59    29    53 1
    60    30    54 1
    61    30    55 1
    62    31    56 1
@<TRIPOS>SUBSTRUCTURE
     1 24V         1 TEMP              0 ****  ****    0 ROOT
