@<TRIPOS>MOLECULE
24W
   23    24     1     0     0
SMALL
bcc


@<TRIPOS>ATOM
      1 CAG          0.0000     0.0000     0.0000 c3         1 24W       0.206100
      2 NAH          1.4660     0.0000     0.0000 n7         1 24W      -0.578200
      3 CAE          1.9750     0.0000     1.3810 c3         1 24W       0.142800
      4 CAF          1.7060     1.3740     1.9970 c3         1 24W       0.039900
      5 CAK          0.2630     1.7560     1.7880 ca         1 24W      -0.124300
      6 CAJ         -0.5270     1.1200     0.8570 ca         1 24W      -0.049300
      7 CAD         -1.8490     1.5110     0.6920 ca         1 24W      -0.142000
      8 CAB         -2.3790     2.5320     1.4570 ca         1 24W      -0.069000
      9 CAC         -1.5930     3.1720     2.3940 ca         1 24W      -0.165000
     10 CAI         -0.2700     2.7860     2.5620 ca         1 24W       0.044600
     11 NAA          0.5290     3.4290     3.5090 nv         1 24W      -0.487200
     12 H1          -0.3560     0.1300    -1.0150 h1         1 24W       0.011200
     13 H2          -0.3560    -0.9450     0.3910 h1         1 24W       0.011200
     14 H3           1.8000    -0.8130    -0.4790 hn         1 24W       0.249800
     15 H5           3.0440    -0.1740     1.3630 h1         1 24W       0.009200
     16 H6           1.4450    -0.7520     1.9520 h1         1 24W       0.009200
     17 H7           2.3340     2.1050     1.5040 hc         1 24W       0.024200
     18 H8           1.9000     1.3210     3.0620 hc         1 24W       0.024200
     19 H9          -2.4700     1.0120    -0.0420 ha         1 24W       0.103000
     20 H10         -3.4120     2.8300     1.3220 ha         1 24W       0.098000
     21 H11         -2.0060     3.9720     2.9950 ha         1 24W       0.106000
     22 H12          1.4690     3.6850     3.2790 hn         1 24W       0.267800
     23 H13          0.1370     3.7070     4.3880 hn         1 24W       0.267800
@<TRIPOS>BOND
     1     1     2 1   
     2     1     6 1   
     3     1    12 1   
     4     1    13 1   
     5     2     3 1   
     6     2    14 1   
     7     3     4 1   
     8     3    15 1   
     9     3    16 1   
    10     4     5 1   
    11     4    17 1   
    12     4    18 1   
    13     5     6 ar  
    14     5    10 ar  
    15     6     7 ar  
    16     7     8 ar  
    17     7    19 1   
    18     8     9 ar  
    19     8    20 1   
    20     9    10 ar  
    21     9    21 1   
    22    10    11 1   
    23    11    22 1   
    24    11    23 1   
@<TRIPOS>SUBSTRUCTURE
     1 24W         1 TEMP              0 ****  ****    0 ROOT
