@<TRIPOS>MOLECULE
24X
   64    66     1     0     0
SMALL
bcc


@<TRIPOS>ATOM
      1 N1           0.0000     0.0000     0.0000 nb         1 24X      -0.595000
      2 C2           1.3520     0.0000     0.0000 ca         1 24X       0.523200
      3 C3           2.1280     0.0000     1.1490 ca         1 24X      -0.471200
      4 C4           1.4730    -0.0020     2.3760 ca         1 24X      -0.007000
      5 C5           0.0830    -0.0020     2.4160 ca         1 24X      -0.295300
      6 C6          -0.6300    -0.0000     1.2130 ca         1 24X       0.543200
      7 C7          -2.7690    -0.0000     2.4970 c3         1 24X       0.194100
      8 N2          -2.0170    -0.0000     1.2690 nu         1 24X      -0.340900
      9 C8          -4.2190    -2.5320     2.2960 cp         1 24X      -0.044000
     10 C17         -4.0920    -3.0980     3.5640 ca         1 24X      -0.132000
     11 C21         -3.4210    -4.3110     3.7230 ca         1 24X      -0.119000
     12 C23         -2.8910    -4.9290     2.6090 ca         1 24X      -0.199600
     13 C26         -3.0030    -4.3910     1.3450 ca         1 24X       0.014000
     14 C29         -3.6750    -3.1780     1.1860 ca         1 24X      -0.093600
     15 C9          -3.7850    -2.6200    -0.1570 c          1 24X       0.950200
     16 O2          -2.7310    -2.9620    -0.9470 o          1 24X      -0.869300
     17 O1          -4.7110    -1.9150    -0.5610 o          1 24X      -0.869300
     18 C10         -2.1760    -6.2210     2.7800 c          1 24X       0.610700
     19 N3          -1.6100    -6.4000     4.0110 ns         1 24X      -0.230900
     20 O4          -2.1230    -7.0060     1.8370 o          1 24X      -0.626100
     21 C11         -0.8410    -7.6230     4.3300 c3         1 24X       0.055000
     22 C18          0.6470    -7.4650     3.9950 c3         1 24X      -0.081700
     23 C12          1.2930    -6.3040     4.7550 c3         1 24X       0.012400
     24 C13          1.4290    -8.7580     4.2240 c3         1 24X       0.012400
     25 C14          3.5780    -0.0010     1.0720 ce         1 24X       0.264800
     26 N4           4.4260    -0.0020     2.1760 nz         1 24X       0.193400
     27 N5           4.1340     0.0010    -0.1220 n2         1 24X      -0.605100
     28 C15         -6.9960    -0.0870     1.8020 ca         1 24X      -0.081000
     29 C19         -6.3180     1.1280     1.8950 ca         1 24X      -0.071800
     30 C22         -4.9420     1.1440     2.1220 ca         1 24X      -0.082000
     31 C24         -4.2440    -0.0560     2.2540 ca         1 24X      -0.138300
     32 C27         -4.9220    -1.2710     2.1620 cp         1 24X       0.069000
     33 C30         -6.2970    -1.2870     1.9350 ca         1 24X      -0.041000
     34 C16         -6.5240     3.4820     1.2370 c2         1 24X      -0.169000
     35 HN41         4.2780    -0.8360     2.7100 hn         1 24X       0.213133
     36 HN42         4.2330     0.7980     2.7460 hn         1 24X       0.213133
     37 HN5          3.5610     0.0020    -0.9420 hn         1 24X       0.387400
     38 H2           1.8600     0.0000    -0.9570 h4         1 24X      -0.029900
     39 H5          -0.4320     0.1860     3.3510 ha         1 24X       0.135000
     40 H4           2.0420    -0.0980     3.2930 ha         1 24X       0.069000
     41 HN2         -2.5230     0.0020     0.4060 hn         1 24X       0.341800
     42 H71         -2.5380     0.9010     3.0510 h1         1 24X       0.023700
     43 H72         -2.4770    -0.8600     3.0880 h1         1 24X       0.023700
     44 H22         -4.4240     2.0880     2.2420 ha         1 24X       0.100000
     45 H20         -8.0750     2.4050     2.0980 ha         1 24X       0.094000
     46 H161        -5.4980     3.4830     0.8880 ha         1 24X       0.084500
     47 H162        -7.1220     4.3820     1.1630 ha         1 24X       0.084500
     48 H15         -8.0680    -0.0980     1.6480 ha         1 24X       0.103000
     49 H30         -7.0220    -2.0910     1.9110 ha         1 24X       0.114000
     50 H17         -4.5150    -2.5970     4.4260 ha         1 24X       0.097000
     51 H21         -3.3170    -4.7590     4.7040 ha         1 24X       0.095000
     52 H26         -2.5770    -4.9010     0.4890 ha         1 24X       0.160000
     53 HN3         -1.7180    -5.6920     4.7100 hn         1 24X       0.183500
     54 H111        -1.2440    -8.4520     3.7590 h1         1 24X       0.025200
     55 H112        -0.9440    -7.8390     5.3860 h1         1 24X       0.025200
     56 H18          0.7140    -7.2320     2.9390 hc         1 24X       0.037700
     57 H121         2.3710    -6.4050     4.7200 hc         1 24X       0.000033
     58 H122         0.9620    -6.3200     5.7870 hc         1 24X       0.000033
     59 H123         1.0020    -5.3660     4.2970 hc         1 24X       0.000033
     60 H131         2.4510    -8.6260     3.8910 hc         1 24X       0.000033
     61 H132         1.4220    -9.0020     5.2800 hc         1 24X       0.000033
     62 H133         0.9680    -9.5630     3.6650 hc         1 24X       0.000033
     63 H43          5.3770     0.0340     1.8660 hn         1 24X       0.213133
     64 C20         -7.0470     2.3790     1.7560 ce         1 24X      -0.075200
@<TRIPOS>BOND
     1     1     2 ar  
     2     1     6 ar  
     3     2     3 ar  
     4     2    38 1   
     5     3     4 ar  
     6     3    25 1   
     7     4     5 ar  
     8     4    40 1   
     9     5     6 ar  
    10     5    39 1   
    11     6     8 1   
    12     7     8 1   
    13     7    31 1   
    14     7    42 1   
    15     7    43 1   
    16     8    41 1   
    17     9    10 ar  
    18     9    14 ar  
    19     9    32 1   
    20    10    11 ar  
    21    10    50 1   
    22    11    12 ar  
    23    11    51 1   
    24    12    13 ar  
    25    12    18 1   
    26    13    14 ar  
    27    13    52 1   
    28    14    15 1   
    29    15    16 1   
    30    15    17 1   
    31    18    19 1   
    32    18    20 2   
    33    19    21 1   
    34    19    53 1   
    35    21    22 1   
    36    21    54 1   
    37    21    55 1   
    38    22    23 1   
    39    22    24 1   
    40    22    56 1   
    41    23    57 1   
    42    23    58 1   
    43    23    59 1   
    44    24    60 1   
    45    24    61 1   
    46    24    62 1   
    47    25    26 1   
    48    25    27 2   
    49    26    35 1   
    50    26    36 1   
    51    26    63 1   
    52    27    37 1   
    53    28    29 ar  
    54    28    33 ar  
    55    28    48 1   
    56    29    30 ar  
    57    29    64 1   
    58    30    31 ar  
    59    30    44 1   
    60    31    32 ar  
    61    32    33 ar  
    62    33    49 1   
    63    34    46 1   
    64    34    47 1   
    65    34    64 2   
    66    45    64 1   
@<TRIPOS>SUBSTRUCTURE
     1 24X         1 TEMP              0 ****  ****    0 ROOT
