@<TRIPOS>MOLECULE
molecule
   64    66     1     0     0
SMALL
bcc


@<TRIPOS>ATOM
      1 N1           0.0000     0.0000     0.0000 nb         1 24X      -0.678000
      2 C2           1.3520     0.0000     0.0000 ca         1 24X       0.549200
      3 C3           2.1280     0.0000     1.1490 ca         1 24X      -0.420200
      4 C4           1.4730    -0.0020     2.3760 ca         1 24X      -0.056000
      5 C5           0.0830    -0.0020     2.4160 ca         1 24X      -0.304300
      6 C6          -0.6300    -0.0000     1.2130 ca         1 24X       0.737200
      7 C7          -2.7690    -0.0000     2.4970 c3         1 24X       0.278100
      8 N2          -2.0170    -0.0000     1.2690 nu         1 24X      -0.811900
      9 C8          -4.2190    -2.5320     2.2960 cp         1 24X      -0.047000
     10 C17         -4.0920    -3.0980     3.5640 ca         1 24X      -0.152000
     11 C21         -3.4210    -4.3110     3.7230 ca         1 24X      -0.141000
     12 C23         -2.8910    -4.9290     2.6090 ca         1 24X      -0.176600
     13 C26         -3.0030    -4.3910     1.3450 ca         1 24X      -0.025000
     14 C29         -3.6750    -3.1780     1.1860 ca         1 24X      -0.081600
     15 C9          -3.7850    -2.6200    -0.1570 c          1 24X       0.861200
     16 O2          -2.7310    -2.9620    -0.9470 o          1 24X      -0.821300
     17 O1          -4.7110    -1.9150    -0.5610 o          1 24X      -0.821300
     18 C10         -2.1760    -6.2210     2.7800 c          1 24X       0.676700
     19 N3          -1.6100    -6.4000     4.0110 ns         1 24X      -0.598900
     20 O4          -2.1230    -7.0060     1.8370 o          1 24X      -0.592100
     21 C11         -0.8410    -7.6230     4.3300 c3         1 24X       0.114000
     22 C18          0.6470    -7.4650     3.9950 c3         1 24X      -0.102700
     23 C12          1.2930    -6.3040     4.7550 c3         1 24X      -0.084100
     24 C13          1.4290    -8.7580     4.2240 c3         1 24X      -0.084100
     25 C14          3.5780    -0.0010     1.0720 ce         1 24X       0.573800
     26 N4           4.4260    -0.0020     2.1760 nz         1 24X      -0.801600
     27 N5           4.1340     0.0010    -0.1220 n2         1 24X      -0.743100
     28 C15         -6.9960    -0.0870     1.8020 ca         1 24X      -0.104000
     29 C19         -6.3180     1.1280     1.8950 ca         1 24X      -0.070800
     30 C22         -4.9420     1.1440     2.1220 ca         1 24X      -0.104000
     31 C24         -4.2440    -0.0560     2.2540 ca         1 24X      -0.125300
     32 C27         -4.9220    -1.2710     2.1620 cp         1 24X       0.054000
     33 C30         -6.2970    -1.2870     1.9350 ca         1 24X      -0.073000
     34 C16         -6.5240     3.4820     1.2370 c2         1 24X      -0.220000
     35 HN41         4.3010    -0.8500     2.6920 hn         1 24X       0.455800
     36 HN42         5.3760     0.0640     1.8670 hn         1 24X       0.455800
     37 HN5          5.1310     0.0010    -0.2100 hn         1 24X       0.409400
     38 H2           1.8600    -0.0000    -0.9570 h4         1 24X       0.051100
     39 H5          -0.4320     0.1860     3.3510 ha         1 24X       0.156000
     40 H4           2.0420    -0.0980     3.2930 ha         1 24X       0.095000
     41 HN2         -2.5230     0.0010     0.4060 hn         1 24X       0.498800
     42 H71         -2.4770    -0.8600     3.0880 h1         1 24X       0.045700
     43 H72         -2.5380     0.9010     3.0510 h1         1 24X       0.045700
     44 H22         -4.4230     2.0880     2.2370 ha         1 24X       0.122000
     45 H20         -8.0750     2.4050     2.0980 ha         1 24X       0.118000
     46 H161        -7.1220     4.3820     1.1630 ha         1 24X       0.112500
     47 H162        -5.4980     3.4830     0.8880 ha         1 24X       0.112500
     48 H15         -8.0690    -0.0980     1.6550 ha         1 24X       0.131000
     49 H30         -6.9960    -2.1150     1.9210 ha         1 24X       0.145000
     50 H17         -4.5150    -2.5970     4.4260 ha         1 24X       0.118000
     51 H21         -3.3170    -4.7590     4.7040 ha         1 24X       0.113000
     52 H26         -2.5770    -4.9010     0.4890 ha         1 24X       0.190000
     53 HN3         -1.7190    -5.6920     4.7100 hn         1 24X       0.317500
     54 H111        -0.9440    -7.8390     5.3860 h1         1 24X       0.052700
     55 H112        -1.2440    -8.4520     3.7590 h1         1 24X       0.052700
     56 H18          0.7140    -7.2320     2.9390 hc         1 24X       0.063700
     57 H121         2.3710    -6.4050     4.7200 hc         1 24X       0.030867
     58 H122         0.9620    -6.3200     5.7870 hc         1 24X       0.030867
     59 H123         1.0020    -5.3660     4.2970 hc         1 24X       0.030867
     60 H131         0.9660    -9.5640     3.6670 hc         1 24X       0.030867
     61 H132         2.4500    -8.6270     3.8880 hc         1 24X       0.030867
     62 H133         1.4250    -9.0000     5.2800 hc         1 24X       0.030867
     63 H43          4.2150     0.7830     2.7600 hn         1 24X       0.455800
     64 C20         -7.0470     2.3790     1.7560 ce         1 24X      -0.108200
@<TRIPOS>BOND
     1     1     2 ar
     2     1     6 ar
     3     2     3 ar
     4     2    38 1
     5     3    25 1
     6     3     4 ar
     7     4     5 ar
     8     4    40 1
     9     5     6 ar
    10     5    39 1
    11     6     8 1
    12     7     8 1
    13     7    42 1
    14     7    43 1
    15     7    31 1
    16     8    41 1
    17     9    32 1
    18     9    10 ar
    19     9    14 ar
    20    10    50 1
    21    10    11 ar
    22    11    51 1
    23    11    12 ar
    24    12    13 ar
    25    12    18 1
    26    13    52 1
    27    13    14 ar
    28    14    15 1
    29    15    16 1
    30    15    17 1
    31    18    20 2
    32    18    19 1
    33    19    53 1
    34    19    21 1
    35    21    54 1
    36    21    55 1
    37    21    22 1
    38    22    56 1
    39    22    23 1
    40    22    24 1
    41    23    57 1
    42    23    58 1
    43    23    59 1
    44    24    60 1
    45    24    61 1
    46    24    62 1
    47    25    26 1
    48    25    27 2
    49    26    35 1
    50    26    36 1
    51    27    37 1
    52    28    29 ar
    53    28    48 1
    54    28    33 ar
    55    29    30 ar
    56    29    64 1
    57    30    31 ar
    58    30    44 1
    59    31    32 ar
    60    32    33 ar
    61    33    49 1
    62    34    64 2
    63    34    46 1
    64    34    47 1
    65    64    45 1
    66    63    26 1
@<TRIPOS>SUBSTRUCTURE
     1 24X         1 TEMP              0 ****  ****    0 ROOT
