@<TRIPOS>MOLECULE
molecule
   40    43     1     0     0
SMALL
bcc


@<TRIPOS>ATOM
      1 Cl           0.0000     0.0000     0.0000 cl         1 24Y      -0.064400
      2 C9           1.7360     0.0000     0.0000 cc         1 24Y      -0.107800
      3 C8           2.4220     0.0000     1.1750 cd         1 24Y      -0.018000
      4 C10          2.4460    -0.0040    -1.2160 c          1 24Y       0.685700
      5 O            1.8370    -0.0040    -2.2740 o          1 24Y      -0.626500
      6 N2           3.7910    -0.0100    -1.2200 ns         1 24Y      -0.395100
      7 C11          4.4900    -0.0110    -0.0660 cc         1 24Y       0.060600
      8 C7           3.8360    -0.0000     1.1460 cd         1 24Y      -0.239800
      9 C6           4.6070    -0.0010     2.4070 cd         1 24Y       0.556300
     10 N3           5.5330    -0.8720     2.7500 nc         1 24Y      -0.751000
     11 C12          6.0180    -0.5660     3.9580 cc         1 24Y       0.640500
     12 C13          7.0770    -1.3170     4.6760 ca         1 24Y      -0.118500
     13 C18          7.5000    -0.8980     5.9370 ca         1 24Y      -0.092500
     14 C17          8.4850    -1.6010     6.6000 ca         1 24Y      -0.138000
     15 C16          9.0520    -2.7200     6.0170 ca         1 24Y      -0.114000
     16 C15          8.6350    -3.1400     4.7670 ca         1 24Y      -0.138000
     17 C14          7.6480    -2.4490     4.0970 ca         1 24Y      -0.092500
     18 N4           5.4080     0.5090     4.4080 nd         1 24Y      -0.529800
     19 N1           4.4900     0.9030     3.4210 na         1 24Y      -0.088200
     20 C5           3.6230     1.9960     3.4710 ca         1 24Y       0.523800
     21 C1           2.8730     2.2280     4.6170 ca         1 24Y      -0.176600
     22 C            2.9840     1.3030     5.8030 c3         1 24Y      -0.045800
     23 N            3.5280     2.8070     2.4280 nb         1 24Y      -0.695000
     24 C4           2.7220     3.8500     2.4340 ca         1 24Y       0.433200
     25 C3           1.9440     4.1370     3.5380 ca         1 24Y      -0.246300
     26 C2           2.0220     3.3190     4.6560 ca         1 24Y      -0.088000
     27 H1           1.8920     0.0080     2.1200 ha         1 24Y       0.154000
     28 H2           5.5730    -0.0140    -0.0930 h4         1 24Y       0.175000
     29 H4           7.0580    -0.0220     6.3940 ha         1 24Y       0.148000
     30 H5           8.8150    -1.2750     7.5800 ha         1 24Y       0.133500
     31 H6           9.8260    -3.2670     6.5410 ha         1 24Y       0.131000
     32 H7           9.0810    -4.0190     4.3160 ha         1 24Y       0.133500
     33 H8           7.3230    -2.7790     3.1180 ha         1 24Y       0.148000
     34 H9           2.2060     1.5390     6.5190 hc         1 24Y       0.055033
     35 H10          2.8720     0.2770     5.4720 hc         1 24Y       0.055033
     36 H11          3.9540     1.4280     6.2690 hc         1 24Y       0.055033
     37 H12          2.6680     4.4890     1.5610 h4         1 24Y       0.033100
     38 H13          1.2860     4.9980     3.5350 ha         1 24Y       0.146000
     39 H14          1.4230     3.5240     5.5360 ha         1 24Y       0.148000
     40 H15          4.2800    -0.0160    -2.0930 hn         1 24Y       0.348500
@<TRIPOS>BOND
     1    26    25 ar
     2    26    21 ar
     3    25    24 ar
     4    22    21 1
     5    24    23 ar
     6    21    20 ar
     7    20    23 ar
     8    20    19 1
     9    19    18 1
    10    19     9 1
    11     6     7 1
    12     6     4 1
    13     7     8 2
    14    18    11 2
    15     5     4 2
    16     4     2 1
    17     8     9 1
    18     8     3 1
    19     9    10 2
    20    11    10 1
    21    11    12 1
    22     2     3 2
    23     2     1 1
    24    17    12 ar
    25    17    16 ar
    26    12    13 ar
    27    16    15 ar
    28    13    14 ar
    29    15    14 ar
    30     3    27 1
    31     7    28 1
    32    13    29 1
    33    14    30 1
    34    15    31 1
    35    16    32 1
    36    17    33 1
    37    22    34 1
    38    22    35 1
    39    22    36 1
    40    24    37 1
    41    25    38 1
    42    26    39 1
    43     6    40 1
@<TRIPOS>SUBSTRUCTURE
     1 24Y         1 TEMP              0 ****  ****    0 ROOT
