@<TRIPOS>MOLECULE
24Z
   46    47     1     0     0
SMALL
bcc


@<TRIPOS>ATOM
      1 N01          0.0000     0.0000     0.0000 nu         1 24Z      -0.370600
      2 N02          3.1220    -0.1270     2.7890 nz         1 24Z       0.210600
      3 N03         -4.2150    -1.1220     0.6510 nb         1 24Z      -0.574000
      4 N04          3.1670     0.0020    -3.6210 nu         1 24Z      -0.269600
      5 N05          5.3480     0.0090    -1.8270 no         1 24Z       1.045200
      6 C06          3.6960     0.0000     0.0000 ca         1 24Z       0.087000
      7 C07          2.3790     0.0000     0.4660 ca         1 24Z      -0.380600
      8 C08          1.3140    -0.0000    -0.4520 ca         1 24Z       0.208600
      9 C09          1.5820     0.0020    -1.8120 ca         1 24Z      -0.329000
     10 C10          2.8980     0.0010    -2.2570 ca         1 24Z       0.172600
     11 C11          3.9490     0.0020    -1.3410 ca         1 24Z      -0.519200
     12 C13         -1.1030     0.1460    -0.9530 c3         1 24Z       0.220100
     13 C14         -2.4140     0.1140    -0.2110 ca         1 24Z      -0.262600
     14 C15         -3.0680    -1.0860     0.0020 ca         1 24Z       0.427200
     15 C16         -4.7830    -0.0280     1.1180 ca         1 24Z       0.424200
     16 C17         -4.1880     1.2080     0.9420 ca         1 24Z      -0.218300
     17 C18         -2.9810     1.2860     0.2650 ca         1 24Z      -0.044000
     18 C19          2.0720     0.1330    -4.5840 c3         1 24Z       0.112800
     19 C20          2.6370     0.1050    -6.0060 c3         1 24Z      -0.024400
     20 C21          1.4920     0.2410    -7.0120 c3         1 24Z      -0.130400
     21 C22          2.0480     0.2150    -8.4130 c          1 24Z       0.977600
     22 O23          0.9640     0.1100     2.3160 o          1 24Z      -0.536100
     23 O24          1.2220     0.3200    -9.4650 o          1 24Z      -0.886300
     24 O25          3.2370     0.0980    -8.5880 o          1 24Z      -0.886300
     25 O26          5.6450     0.6510    -2.8190 o          1 24Z      -0.433500
     26 O27          6.2010    -0.6270    -1.2350 o          1 24Z      -0.433500
     27 HN01        -0.1940    -0.1380     0.9720 hn         1 24Z       0.339800
     28 H102         3.7390     0.6560     2.6980 hn         1 24Z       0.237467
     29 H202         2.7810    -0.1750     3.7280 hn         1 24Z       0.237467
     30 HN04         4.1060    -0.1230    -3.9460 hn         1 24Z       0.331800
     31 H06          4.5190     0.0000     0.7050 ha         1 24Z       0.085000
     32 H09          0.7690    -0.0720    -2.5240 ha         1 24Z       0.165000
     33 H113        -1.0060     1.0910    -1.4750 h1         1 24Z       0.036200
     34 H213        -1.0720    -0.6670    -1.6680 h1         1 24Z       0.036200
     35 H15         -2.6320    -2.0060    -0.3670 h4         1 24Z      -0.015900
     36 H16         -5.7270    -0.0970     1.6460 h4         1 24Z      -0.013900
     37 H17         -4.6600     2.1040     1.3280 ha         1 24Z       0.120000
     38 H18         -2.4920     2.2410     0.1120 ha         1 24Z       0.113000
     39 H119         1.3770    -0.6880    -4.4550 h1         1 24Z       0.027200
     40 H219         1.5570     1.0720    -4.4190 h1         1 24Z       0.027200
     41 H120         3.1530    -0.8330    -6.1710 hc         1 24Z       0.036200
     42 H220         3.3310     0.9270    -6.1360 hc         1 24Z       0.036200
     43 H121         0.9750     1.1790    -6.8460 hc         1 24Z       0.007200
     44 H221         0.7980    -0.5810    -6.8830 hc         1 24Z       0.007200
     45 H023         3.6240    -0.9710     2.5990 hn         1 24Z       0.237467
     46 C12          2.1060    -0.0020     1.9130 c          1 24Z       0.358700
@<TRIPOS>BOND
     1     1     8 1   
     2     1    12 1   
     3     1    27 1   
     4     2    28 1   
     5     2    29 1   
     6     2    45 1   
     7     2    46 1   
     8     3    14 ar  
     9     3    15 ar  
    10     4    10 1   
    11     4    18 1   
    12     4    30 1   
    13     5    11 1   
    14     5    25 1   
    15     5    26 1   
    16     6     7 ar  
    17     6    11 ar  
    18     6    31 1   
    19     7     8 ar  
    20     7    46 1   
    21     8     9 ar  
    22     9    10 ar  
    23     9    32 1   
    24    10    11 ar  
    25    12    13 1   
    26    12    33 1   
    27    12    34 1   
    28    13    14 ar  
    29    13    17 ar  
    30    14    35 1   
    31    15    16 ar  
    32    15    36 1   
    33    16    17 ar  
    34    16    37 1   
    35    17    38 1   
    36    18    19 1   
    37    18    39 1   
    38    18    40 1   
    39    19    20 1   
    40    19    41 1   
    41    19    42 1   
    42    20    21 1   
    43    20    43 1   
    44    20    44 1   
    45    21    23 1   
    46    21    24 1   
    47    22    46 2   
@<TRIPOS>SUBSTRUCTURE
     1 24Z         1 TEMP              0 ****  ****    0 ROOT
