@<TRIPOS>MOLECULE
molecule
   36    36     1     0     0
SMALL
bcc


@<TRIPOS>ATOM
      1 O1           0.0000     0.0000     0.0000 o          1 250      -0.706200
      2 S1           1.4210     0.0000     0.0000 s6         1 250       1.254800
      3 O2           2.1540     0.0000     1.2180 o          1 250      -0.706200
      4 O3           1.7970    -1.3170    -0.6640 o          1 250      -0.706200
      5 C1           2.0580     1.2720    -1.1260 c3         1 250      -0.273600
      6 C2           1.7390     2.6570    -0.5630 c3         1 250       0.173100
      7 O4           0.3240     2.8040    -0.4300 oh         1 250      -0.589800
      8 C3           2.2760     3.7300    -1.5120 c3         1 250       0.157800
      9 N1           2.0760     5.0570    -0.9150 n3         1 250      -0.727600
     10 C7           2.8990     5.2210     0.2930 c3         1 250       0.163300
     11 C6           2.6030     6.5820     0.9280 c3         1 250       0.162800
     12 N2           2.8860     7.6460    -0.0460 n3         1 250      -0.718600
     13 C5           2.0630     7.4830    -1.2530 c3         1 250       0.162800
     14 C4           2.3580     6.1220    -1.8890 c3         1 250       0.163300
     15 C8           2.6870     8.9730     0.5510 c3         1 250       0.160800
     16 C9           3.8630     9.2990     1.4730 c3         1 250       0.144400
     17 O5           5.0600     9.4010     0.7000 oh         1 250      -0.589800
     18 H11          3.1310     1.1610    -1.2260 h1         1 250       0.081200
     19 H12          1.5910     1.1610    -2.0970 h1         1 250       0.081200
     20 H2           2.2060     2.7680     0.4090 h1         1 250       0.031700
     21 HO4          0.0950     2.8420     0.4840 ho         1 250       0.400000
     22 H31          1.7460     3.6750    -2.4550 h1         1 250       0.039700
     23 H32          3.3330     3.5660    -1.6810 h1         1 250       0.039700
     24 H71          2.6620     4.4350     0.9990 h1         1 250       0.041700
     25 H72          3.9470     5.1690     0.0240 h1         1 250       0.041700
     26 H61          3.2310     6.7160     1.8000 h1         1 250       0.034450
     27 H62          1.5600     6.6260     1.2170 h1         1 250       0.034450
     28 H51          1.0150     7.5350    -0.9850 h1         1 250       0.034450
     29 H52          2.3010     8.2690    -1.9600 h1         1 250       0.034450
     30 H41          1.7300     5.9880    -2.7610 h1         1 250       0.041700
     31 H42          3.4020     6.0780    -2.1780 h1         1 250       0.041700
     32 H81          1.7670     8.9770     1.1230 h1         1 250       0.036200
     33 H82          2.6270     9.7170    -0.2350 h1         1 250       0.036200
     34 H91          3.6770    10.2390     1.9770 h1         1 250       0.019700
     35 H92          3.9740     8.5110     2.2090 h1         1 250       0.019700
     36 HO5          5.6640     9.9830     1.1310 ho         1 250       0.387000
@<TRIPOS>BOND
     1     3     2 1
     2     1     2 1
     3     2     4 1
     4     2     5 1
     5     5     6 1
     6     7     6 1
     7     6     8 1
     8     8     9 1
     9     9    14 1
    10     9    10 1
    11    14    13 1
    12    10    11 1
    13    13    12 1
    14    12    11 1
    15    12    15 1
    16    15    16 1
    17    16    17 1
    18     5    18 1
    19     5    19 1
    20     6    20 1
    21     7    21 1
    22     8    22 1
    23     8    23 1
    24    10    24 1
    25    10    25 1
    26    11    26 1
    27    11    27 1
    28    13    28 1
    29    13    29 1
    30    14    30 1
    31    14    31 1
    32    15    32 1
    33    15    33 1
    34    16    34 1
    35    16    35 1
    36    17    36 1
@<TRIPOS>SUBSTRUCTURE
     1 250         1 TEMP              0 ****  ****    0 ROOT
