@<TRIPOS>MOLECULE
251
   43    45     1     0     0
SMALL
bcc


@<TRIPOS>ATOM
      1 C1           0.0000     0.0000     0.0000 ca         1 251      -0.082250
      2 C2           1.3790     0.0000     0.0000 ca         1 251      -0.123000
      3 C3           2.0750     0.0000     1.2100 ca         1 251       0.021500
      4 C4           1.3680     0.0010     2.4140 ca         1 251      -0.123000
      5 C5          -0.0110     0.0020     2.4000 ca         1 251      -0.082250
      6 C6          -0.6940     0.0070     1.1970 ca         1 251      -0.094000
      7 C12          3.5530    -0.0010     1.2170 cc         1 251      -0.246300
      8 C13          4.3580     0.4080     0.1940 cd         1 251      -0.127000
      9 C14          5.6850     0.2450     0.6080 cd         1 251      -0.127000
     10 C15          5.6630    -0.2590     1.8770 cc         1 251      -0.246300
     11 N16          4.3530    -0.4050     2.2550 na         1 251       0.458900
     12 C17          6.8450    -0.5850     2.7010 ca         1 251       0.021500
     13 C18          8.0790    -0.8250     2.0930 ca         1 251      -0.123000
     14 C19          9.1780    -1.1280     2.8690 ca         1 251      -0.082250
     15 C20          9.0600    -1.1940     4.2460 ca         1 251      -0.094000
     16 C21          7.8400    -0.9570     4.8550 ca         1 251      -0.082250
     17 C22          6.7350    -0.6480     4.0910 ca         1 251      -0.123000
     18 C28          3.8860    -0.9160     3.5460 c3         1 251      -0.142700
     19 C29          3.7220     0.2310     4.5100 c          1 251       0.576100
     20 N32          3.3000    -0.0010     5.7690 ns         1 251      -0.079400
     21 O33          3.9710     1.3630     4.1540 o          1 251      -0.561100
     22 C34          3.1500     1.0490     6.6530 c2         1 251       0.044800
     23 N35          3.4170     2.2650     6.2700 n2         1 251      -0.554100
     24 N36          2.7190     0.8130     7.9360 nz         1 251       0.189400
     25 H1          -0.5410     0.0020    -0.9390 ha         1 251       0.103000
     26 H2           1.9220    -0.0030    -0.9380 ha         1 251       0.097750
     27 H4           1.9010    -0.0010     3.3570 ha         1 251       0.097750
     28 H5          -0.5610     0.0050     3.3340 ha         1 251       0.103000
     29 H6          -1.7770     0.0070     1.1920 ha         1 251       0.111000
     30 H13          4.0310     0.7880    -0.7660 ha         1 251       0.138000
     31 H14          6.5690     0.4750     0.0270 ha         1 251       0.138000
     32 H18          8.1720    -0.7740     1.0150 ha         1 251       0.097750
     33 H19         10.1360    -1.3150     2.3990 ha         1 251       0.103000
     34 H20          9.9260    -1.4350     4.8510 ha         1 251       0.111000
     35 H21          7.7550    -1.0080     5.9340 ha         1 251       0.103000
     36 H22          5.7800    -0.4620     4.5690 ha         1 251       0.097750
     37 H281         4.6110    -1.6180     3.9400 h1         1 251       0.081700
     38 H282         2.9340    -1.4160     3.4140 h1         1 251       0.081700
     39 HN32         3.0950    -0.9360     6.0630 hn         1 251       0.187500
     40 HN35         3.7310     2.4390     5.3350 hn         1 251       0.458400
     41 H361         3.3630     0.2010     8.3970 hn         1 251       0.222800
     42 H362         1.8130     0.3860     7.9110 hn         1 251       0.222800
     43 H363         2.6650     1.6790     8.4350 hn         1 251       0.222800
@<TRIPOS>BOND
     1     1     2 ar  
     2     1     6 ar  
     3     1    25 1   
     4     2     3 ar  
     5     2    26 1   
     6     3     4 ar  
     7     3     7 1   
     8     4     5 ar  
     9     4    27 1   
    10     5     6 ar  
    11     5    28 1   
    12     6    29 1   
    13     7     8 2   
    14     7    11 1   
    15     8     9 1   
    16     8    30 1   
    17     9    10 2   
    18     9    31 1   
    19    10    11 1   
    20    10    12 1   
    21    11    18 1   
    22    12    13 ar  
    23    12    17 ar  
    24    13    14 ar  
    25    13    32 1   
    26    14    15 ar  
    27    14    33 1   
    28    15    16 ar  
    29    15    34 1   
    30    16    17 ar  
    31    16    35 1   
    32    17    36 1   
    33    18    19 1   
    34    18    37 1   
    35    18    38 1   
    36    19    20 1   
    37    19    21 2   
    38    20    22 1   
    39    20    39 1   
    40    22    23 2   
    41    22    24 1   
    42    23    40 1   
    43    24    41 1   
    44    24    42 1   
    45    24    43 1   
@<TRIPOS>SUBSTRUCTURE
     1 251         1 TEMP              0 ****  ****    0 ROOT
