@<TRIPOS>MOLECULE
molecule
   36    35     1     0     0
SMALL
bcc


@<TRIPOS>ATOM
      1 CAA          0.0000     0.0000     0.0000 c3         1 252      -0.092100
      2 CAI          1.5290     0.0000     0.0000 c3         1 252      -0.088400
      3 CAJ          2.0390     0.0000     1.4430 c3         1 252      -0.082400
      4 CAK          3.5680    -0.0000     1.4430 c3         1 252      -0.088400
      5 CAL          4.0790    -0.0010     2.8860 c3         1 252      -0.075400
      6 CAM          5.6090     0.0000     2.8870 c3         1 252      -0.071400
      7 CAN          6.1180    -0.0010     4.3290 c3         1 252      -0.131400
      8 CAO          7.6480     0.0000     4.3300 c3         1 252       0.011600
      9 CAP          8.1580    -0.1370     5.7660 c3         1 252      -0.184600
     10 P1P          7.4000     1.1540     6.8050 p5         1 252       1.124200
     11 OAE          8.0330     1.0940     8.2840 o          1 252      -0.950333
     12 OAF          7.6850     2.6010     6.1580 o          1 252      -0.950333
     13 OAB          5.9400     0.9300     6.8850 o          1 252      -0.950333
     14 P1R          7.7100    -1.7800     6.4160 p5         1 252       1.124200
     15 OAG          8.2400    -2.9180     5.4080 o          1 252      -0.950333
     16 OAH          8.3300    -1.9700     7.7460 o          1 252      -0.950333
     17 OAC          6.1090    -1.8860     6.5500 o          1 252      -0.950333
     18 OAD          9.5790     0.0110     5.7830 oh         1 252      -0.651800
     19 HAA1        -0.3610     0.8850     0.5110 hc         1 252       0.015367
     20 HAA2        -0.3610    -0.8850     0.5110 hc         1 252       0.015367
     21 HAA3        -0.3610    -0.0000    -1.0210 hc         1 252       0.015367
     22 HAI1         1.8900     0.8850    -0.5110 hc         1 252       0.027200
     23 HAI2         1.8900    -0.8850    -0.5110 hc         1 252       0.027200
     24 HAJ1         1.6780     0.8850     1.9540 hc         1 252       0.039200
     25 HAJ2         1.6780    -0.8850     1.9540 hc         1 252       0.039200
     26 HAK1         3.9300    -0.8840     0.9320 hc         1 252       0.018200
     27 HAK2         3.9300     0.8850     0.9330 hc         1 252       0.018200
     28 HAL1         3.7180    -0.8860     3.3960 hc         1 252       0.050700
     29 HAL2         3.7170     0.8830     3.3970 hc         1 252       0.050700
     30 HAM1         5.9700     0.8850     2.3770 hc         1 252      -0.007800
     31 HAM2         5.9710    -0.8840     2.3760 hc         1 252      -0.007800
     32 HAN1         5.7560     0.8830     4.8410 hc         1 252       0.129200
     33 HAN2         5.7570    -0.8860     4.8390 hc         1 252       0.129200
     34 HAO1         8.0090     0.9290     3.9060 hc         1 252      -0.020300
     35 HAO2         8.0100    -0.8320     3.7380 hc         1 252      -0.020300
     36 HOAD         9.8930    -0.0730     6.6690 ho         1 252       0.387000
@<TRIPOS>BOND
     1     1     2 1   
     2     1    19 1   
     3     1    20 1   
     4     1    21 1   
     5     2     3 1   
     6     2    22 1   
     7     2    23 1   
     8     3     4 1   
     9     3    24 1   
    10     3    25 1   
    11     4     5 1   
    12     4    26 1   
    13     4    27 1   
    14     5     6 1   
    15     5    28 1   
    16     5    29 1   
    17     6     7 1   
    18     6    30 1   
    19     6    31 1   
    20     7     8 1   
    21     7    32 1   
    22     7    33 1   
    23     8     9 1   
    24     8    34 1   
    25     8    35 1   
    26     9    10 1   
    27     9    18 1   
    28     9    14 1   
    29    10    13 1   
    30    10    11 1   
    31    10    12 1   
    32    14    16 1   
    33    14    17 1   
    34    14    15 1   
    35    18    36 1   
@<TRIPOS>SUBSTRUCTURE
     1 252         1 TEMP              0 ****  ****    0 ROOT
