@<TRIPOS>MOLECULE
252
   36    35     1     0     0
SMALL
bcc


@<TRIPOS>ATOM
      1 CAA         0.0190    0.0160   -0.1480 c3        1 252     -0.085100
      2 CAI         1.5220    0.0740   -0.0530 c3        1 252     -0.082400
      3 CAJ         2.0030   -0.0310    1.3790 c3        1 252     -0.080400
      4 CAK         3.5140    0.0290    1.4710 c3        1 252     -0.077400
      5 CAL         3.9940   -0.0780    2.9060 c3        1 252     -0.083400
      6 CAM         5.5070   -0.0180    3.0060 c3        1 252     -0.041400
      7 CAN         5.9600   -0.1260    4.4430 c3        1 252     -0.149400
      8 CAO         7.4830   -0.0660    4.5710 c3        1 252     -0.035400
      9 CAP         7.9620   -0.1720    5.9950 c3        1 252     -0.202600
     10 P1P         7.6670    1.5330    6.6990 p5        1 252      1.252700
     11 OAE         8.5110    1.6760    7.9570 o         1 252     -0.987500
     12 OAF         8.1190    2.5410    5.6420 o         1 252     -0.987500
     13 OAB         6.1780    1.7430    6.9560 o         1 252     -0.987500
     14 P1R         7.8340   -1.9970    6.3800 p5        1 252      1.252700
     15 OAG         8.3700   -2.7520    5.1620 o         1 252     -0.987500
     16 OAH         8.6980   -2.2830    7.5980 o         1 252     -0.987500
     17 OAC         6.3730   -2.3880    6.5820 o         1 252     -0.987500
     18 OAD         9.4100   -0.1020    5.9780 oh        1 252     -0.671800
     19 HAA1       -0.3170    0.0940   -1.2100 hc        1 252      0.013367
     20 HAA2       -0.3620   -0.9470    0.2720 hc        1 252      0.013367
     21 HAA3       -0.4430    0.8530    0.4300 hc        1 252      0.013367
     22 HAI1        1.8890    1.0360   -0.4990 hc        1 252      0.026700
     23 HAI2        1.9680   -0.7590   -0.6580 hc        1 252      0.026700
     24 HAJ1        1.6410   -0.9940    1.8260 hc        1 252      0.034700
     25 HAJ2        1.5610    0.8020    1.9850 hc        1 252      0.034700
     26 HAK1        3.8770    0.9920    1.0250 hc        1 252      0.019700
     27 HAK2        3.9580   -0.8050    0.8660 hc        1 252      0.019700
     28 HAL1        3.6360   -1.0420    3.3530 hc        1 252      0.040700
     29 HAL2        3.5540    0.7560    3.5130 hc        1 252      0.040700
     30 HAM1        5.8670    0.9480    2.5610 hc        1 252     -0.000300
     31 HAM2        5.9490   -0.8510    2.3980 hc        1 252     -0.000300
     32 HAN1        5.6440   -1.1020    4.9180 hc        1 252      0.108700
     33 HAN2        5.5590    0.7140    5.0820 hc        1 252      0.108700
     34 HAO1        7.8440    0.9060    4.1320 hc        1 252      0.011700
     35 HAO2        7.9300   -0.9060    3.9680 hc        1 252      0.011700
     36 HOAD        9.6090   -0.1790    6.9220 ho        1 252      0.404000
@<TRIPOS>BOND
     1    1    2 1   
     2    1   19 1   
     3    1   20 1   
     4    1   21 1   
     5    2    3 1   
     6    2   22 1   
     7    2   23 1   
     8    3    4 1   
     9    3   24 1   
    10    3   25 1   
    11    4    5 1   
    12    4   26 1   
    13    4   27 1   
    14    5    6 1   
    15    5   28 1   
    16    5   29 1   
    17    6    7 1   
    18    6   30 1   
    19    6   31 1   
    20    7    8 1   
    21    7   32 1   
    22    7   33 1   
    23    8    9 1   
    24    8   34 1   
    25    8   35 1   
    26    9   10 1   
    27    9   14 1   
    28    9   18 1   
    29   10   11 1   
    30   10   12 1   
    31   10   13 1   
    32   14   15 1   
    33   14   16 1   
    34   14   17 1   
    35   18   36 1   
@<TRIPOS>SUBSTRUCTURE
     1 252         1 TEMP              0 ****  ****    0 ROOT
