@<TRIPOS>MOLECULE
molecule
   43    46     1     0     0
SMALL
bcc


@<TRIPOS>ATOM
      1 C1           0.0000     0.0000     0.0000 c3         1 253       0.124700
      2 O2           1.4280     0.0000     0.0000 os         1 253      -0.309900
      3 C3           2.0460     0.0000     1.2100 ca         1 253       0.144100
      4 C23          3.4440    -0.0000     1.2790 ca         1 253       0.127100
      5 O24          4.1770     0.0460     0.1350 os         1 253      -0.311900
      6 C25          5.5990     0.0420     0.2730 c3         1 253       0.125700
      7 C22          4.0810    -0.0530     2.4880 ca         1 253      -0.190000
      8 C21          3.3410    -0.1380     3.6690 ca         1 253      -0.143300
      9 C11          3.9410    -0.3620     4.9750 ca         1 253       0.081000
     10 C12          5.3080    -0.8090     5.2080 ca         1 253      -0.203300
     11 C19          5.8190    -0.7400     6.5310 ca         1 253       0.500600
     12 N20          5.0380    -0.3620     7.5560 nb         1 253      -0.796000
     13 C17          7.1550    -1.0930     6.7690 ca         1 253      -0.179600
     14 C18          7.7280    -0.9820     8.1570 c3         1 253      -0.028800
     15 C15          7.9430    -1.5410     5.7290 ca         1 253       0.196600
     16 N16          9.2750    -1.8770     5.9640 nv         1 253      -0.968200
     17 C14          7.4130    -1.6590     4.4410 ca         1 253      -0.177000
     18 C13          6.1190    -1.3130     4.1890 ca         1 253      -0.093000
     19 C8           3.1260    -0.1330     6.1100 ca         1 253      -0.335600
     20 C9           3.7630    -0.0810     7.4210 ca         1 253       0.741200
     21 N1           3.0240     0.2680     8.5350 nv         1 253      -0.999500
     22 C7           1.7470     0.0590     5.9310 ca         1 253       0.463200
     23 N6           1.2100     0.0950     4.7400 nb         1 253      -0.699000
     24 C5           1.9270    -0.0060     3.6120 ca         1 253       0.437600
     25 C4           1.2910     0.0060     2.3610 ca         1 253      -0.250300
     26 H11         -0.3610    -0.0360    -1.0210 h1         1 253       0.045033
     27 H12         -0.3610    -0.8660     0.5410 h1         1 253       0.045033
     28 H13A        -0.3610     0.9020     0.4790 h1         1 253       0.045033
     29 H251         5.9020     0.8650     0.9100 h1         1 253       0.043033
     30 H252         6.0570     0.1540    -0.7020 h1         1 253       0.043033
     31 H253         5.9170    -0.8940     0.7160 h1         1 253       0.043033
     32 H22          5.1640    -0.0520     2.5290 ha         1 253       0.159000
     33 H181         8.8050    -1.0940     8.1130 hc         1 253       0.044700
     34 H182         7.3100    -1.7610     8.7840 hc         1 253       0.044700
     35 H183         7.4820    -0.0130     8.5740 hc         1 253       0.044700
     36 H161         9.4990    -2.6260     6.5880 hn         1 253       0.429800
     37 H162        10.0070    -1.3830     5.4910 hn         1 253       0.429800
     38 H14          8.0410    -2.0120     3.6330 ha         1 253       0.132000
     39 H13          5.7220    -1.4110     3.1850 ha         1 253       0.136000
     40 HN11         2.0600     0.5220     8.4370 hn         1 253       0.443800
     41 HN12         3.4570     0.2900     9.4370 hn         1 253       0.443800
     42 H7           1.1140     0.1850     6.8010 h4         1 253       0.013100
     43 H4           0.2150     0.1160     2.3020 ha         1 253       0.161000
@<TRIPOS>BOND
     1    21    20 1
     2    14    13 1
     3    12    20 ar
     4    12    11 ar
     5    20    19 ar
     6    13    11 ar
     7    13    15 ar
     8    11    10 ar
     9    19    22 ar
    10    19     9 ar
    11    22    23 ar
    12    16    15 1
    13    15    17 ar
    14    23    24 ar
    15    10     9 ar
    16    10    18 ar
    17     9     8 ar
    18    24     8 ar
    19    24    25 ar
    20    17    18 ar
    21     8     7 ar
    22    25     3 ar
    23     7     4 ar
    24     6     5 1
    25     3     4 ar
    26     3     2 1
    27     4     5 1
    28     2     1 1
    29     1    26 1
    30     1    27 1
    31     1    28 1
    32     6    29 1
    33     6    30 1
    34     6    31 1
    35     7    32 1
    36    14    33 1
    37    14    34 1
    38    14    35 1
    39    16    36 1
    40    16    37 1
    41    17    38 1
    42    18    39 1
    43    21    40 1
    44    21    41 1
    45    22    42 1
    46    25    43 1
@<TRIPOS>SUBSTRUCTURE
     1 253         1 TEMP              0 ****  ****    0 ROOT
