@<TRIPOS>MOLECULE
253
   43    46     1     0     0
SMALL
bcc


@<TRIPOS>ATOM
      1 C1           0.0000     0.0000     0.0000 c3         1 253       0.240700
      2 O2           1.4280     0.0000     0.0000 os         1 253      -0.292900
      3 C3           2.0460     0.0000     1.2100 ca         1 253       0.144100
      4 C23          3.4440    -0.0000     1.2790 ca         1 253       0.134100
      5 O24          4.1770     0.0460     0.1350 os         1 253      -0.291900
      6 C25          5.5990     0.0420     0.2730 c3         1 253       0.238700
      7 C22          4.0810    -0.0530     2.4880 ca         1 253      -0.195000
      8 C21          3.3410    -0.1380     3.6690 ca         1 253      -0.128300
      9 C11          3.9410    -0.3620     4.9750 ca         1 253       0.089000
     10 C12          5.3080    -0.8090     5.2080 ca         1 253      -0.195300
     11 C19          5.8190    -0.7400     6.5310 ca         1 253       0.459600
     12 N20          5.0380    -0.3620     7.5560 nb         1 253      -0.694000
     13 C17          7.1550    -1.0930     6.7690 ca         1 253      -0.188600
     14 C18          7.7280    -0.9820     8.1570 c3         1 253       0.071200
     15 C15          7.9430    -1.5410     5.7290 ca         1 253       0.055600
     16 N16          9.2750    -1.8770     5.9640 nv         1 253      -0.521200
     17 C14          7.4130    -1.6590     4.4410 ca         1 253      -0.149000
     18 C13          6.1190    -1.3130     4.1890 ca         1 253      -0.080000
     19 C8           3.1260    -0.1330     6.1100 ca         1 253      -0.327600
     20 C9           3.7630    -0.0810     7.4210 ca         1 253       0.543200
     21 N1           3.0240     0.2680     8.5350 nv         1 253      -0.514500
     22 C7           1.7470     0.0590     5.9310 ca         1 253       0.436200
     23 N6           1.2100     0.0950     4.7400 nb         1 253      -0.584000
     24 C5           1.9270    -0.0060     3.6120 ca         1 253       0.388600
     25 C4           1.2910     0.0060     2.3610 ca         1 253      -0.242300
     26 H11         -0.3610    -0.0360    -1.0210 h1         1 253       0.000033
     27 H12         -0.3610    -0.8660     0.5410 h1         1 253       0.000033
     28 H13A        -0.3610     0.9020     0.4790 h1         1 253       0.000033
     29 H251         5.9020     0.8650     0.9100 h1         1 253      -0.000967
     30 H252         6.0570     0.1540    -0.7020 h1         1 253      -0.000967
     31 H253         5.9170    -0.8940     0.7160 h1         1 253      -0.000967
     32 H22          5.1640    -0.0520     2.5290 ha         1 253       0.150000
     33 H181         8.8050    -1.0940     8.1130 hc         1 253       0.010033
     34 H182         7.3100    -1.7610     8.7840 hc         1 253       0.010033
     35 H183         7.4820    -0.0130     8.5740 hc         1 253       0.010033
     36 H161         9.4990    -2.6260     6.5880 hn         1 253       0.271800
     37 H162        10.0070    -1.3830     5.4910 hn         1 253       0.271800
     38 H14          8.0410    -2.0120     3.6330 ha         1 253       0.106000
     39 H13          5.7220    -1.4110     3.1850 ha         1 253       0.118000
     40 HN11         2.0600     0.5220     8.4370 hn         1 253       0.273800
     41 HN12         3.4570     0.2900     9.4370 hn         1 253       0.273800
     42 H7           1.1140     0.1850     6.8010 h4         1 253      -0.027900
     43 H4           0.2150     0.1160     2.3020 ha         1 253       0.139000
@<TRIPOS>BOND
     1     1     2 1   
     2     1    26 1   
     3     1    27 1   
     4     1    28 1   
     5     2     3 1   
     6     3     4 ar  
     7     3    25 ar  
     8     4     5 1   
     9     4     7 ar  
    10     5     6 1   
    11     6    29 1   
    12     6    30 1   
    13     6    31 1   
    14     7     8 ar  
    15     7    32 1   
    16     8     9 ar  
    17     8    24 ar  
    18     9    10 ar  
    19     9    19 ar  
    20    10    11 ar  
    21    10    18 ar  
    22    11    12 ar  
    23    11    13 ar  
    24    12    20 ar  
    25    13    14 1   
    26    13    15 ar  
    27    14    33 1   
    28    14    34 1   
    29    14    35 1   
    30    15    16 1   
    31    15    17 ar  
    32    16    36 1   
    33    16    37 1   
    34    17    18 ar  
    35    17    38 1   
    36    18    39 1   
    37    19    20 ar  
    38    19    22 ar  
    39    20    21 1   
    40    21    40 1   
    41    21    41 1   
    42    22    23 ar  
    43    22    42 1   
    44    23    24 ar  
    45    24    25 ar  
    46    25    43 1   
@<TRIPOS>SUBSTRUCTURE
     1 253         1 TEMP              0 ****  ****    0 ROOT
