@<TRIPOS>MOLECULE
molecule
   56    59     1     0     0
SMALL
bcc


@<TRIPOS>ATOM
      1 C1           0.0000     0.0000     0.0000 c          1 254       0.879200
      2 C2           1.4760     0.0000     0.0000 ca         1 254      -0.088600
      3 C3           2.1740     0.0000     1.2210 ca         1 254      -0.073000
      4 C4           3.5320     0.0000     1.2470 ca         1 254      -0.167000
      5 C5           4.2590     0.0010     0.0410 ca         1 254      -0.054000
      6 C10          3.5660     0.0010    -1.1960 ca         1 254      -0.030000
      7 C11          2.1640     0.0010    -1.2010 ca         1 254      -0.117000
      8 C15         10.5320     1.5770     1.3810 ca         1 254      -0.069300
      9 C16         11.9790     1.2810     1.6790 c3         1 254      -0.015700
     10 C17         12.6440     2.4790     2.3530 c3         1 254      -0.072400
     11 C18         11.7740     2.9100     3.5390 c3         1 254      -0.071400
     12 C19         10.4850     3.5230     2.9940 c3         1 254      -0.018700
     13 C20          9.8440     2.6020     1.9890 ca         1 254      -0.066300
     14 C23         12.7090     0.9690     0.3710 c3         1 254      -0.082100
     15 C24         12.0640     0.0690     2.6070 c3         1 254      -0.082100
     16 C25          9.5130     3.7650     4.1500 c3         1 254      -0.081100
     17 C26         10.8090     4.8580     2.3200 c3         1 254      -0.081100
     18 O1          -0.6080    -0.0010    -1.0520 o          1 254      -0.832300
     19 O2          -0.6740    -0.0020     1.1660 o          1 254      -0.832300
     20 C6           5.6610    -0.0040     0.0480 ca         1 254      -0.089000
     21 C7           6.3480     0.0010    -1.1530 ca         1 254      -0.206900
     22 C8           5.6520     0.0020    -2.3730 ca         1 254      -0.114000
     23 C9           4.2940     0.0020    -2.4010 ca         1 254      -0.119000
     24 C13          8.5500     0.9840     0.1410 ca         1 254      -0.082900
     25 C14          9.8880     0.7680     0.4560 ca         1 254      -0.117000
     26 C21          8.5070     2.8210     1.6760 ca         1 254      -0.128000
     27 C22          7.8580     2.0230     0.7620 ca         1 254      -0.111000
     28 C12          7.8280     0.0020    -1.1520 ce         1 254       0.494500
     29 N1           8.4800    -0.7040    -2.0310 n2         1 254      -0.477200
     30 O3           7.7790    -1.5700    -2.9040 oh         1 254      -0.374500
     31 H3           1.6220    -0.0000     2.1530 ha         1 254       0.157000
     32 H4           4.0550     0.0000     2.1950 ha         1 254       0.112000
     33 H11          1.6260     0.1230    -2.1340 ha         1 254       0.154000
     34 H171        13.6280     2.1970     2.7070 hc         1 254       0.043700
     35 H172        12.7240     3.2960     1.6450 hc         1 254       0.043700
     36 H181        12.3060     3.6600     4.1120 hc         1 254       0.046200
     37 H182        11.5270     2.0370     4.1310 hc         1 254       0.046200
     38 H231        13.7790     1.0050     0.5380 hc         1 254       0.036867
     39 H232        12.4360     1.7020    -0.3790 hc         1 254       0.036867
     40 H233        12.4300    -0.0200     0.0290 hc         1 254       0.036867
     41 H241        12.0560    -0.8390     2.0170 hc         1 254       0.036867
     42 H242        11.2150     0.0690     3.2810 hc         1 254       0.036867
     43 H243        12.9810     0.1180     3.1820 hc         1 254       0.036867
     44 H251         8.7250     4.4340     3.8250 hc         1 254       0.036533
     45 H252         9.0800     2.8220     4.4610 hc         1 254       0.036533
     46 H253        10.0450     4.2110     4.9820 hc         1 254       0.036533
     47 H261        11.6230     5.3410     2.8480 hc         1 254       0.036533
     48 H262        11.0990     4.6830     1.2920 hc         1 254       0.036533
     49 H263         9.9340     5.4970     2.3450 hc         1 254       0.036533
     50 H6           6.2020    -0.0050     0.9860 ha         1 254       0.126000
     51 H8           6.2060     0.0070    -3.3040 ha         1 254       0.130000
     52 H9           3.7720     0.0030    -3.3500 ha         1 254       0.129000
     53 H14         10.4300    -0.0380    -0.0240 ha         1 254       0.146000
     54 H21          7.9700     3.6290     2.1590 ha         1 254       0.137000
     55 H22          6.8160     2.2010     0.5260 ha         1 254       0.157000
     56 HO3          8.3890    -2.1500    -3.3290 ho         1 254       0.414000
@<TRIPOS>BOND
     1     1     2 1
     2     1    18 1
     3     1    19 1
     4     2     3 ar
     5     2     7 ar
     6     3     4 ar
     7     3    31 1
     8     4     5 ar
     9     4    32 1
    10     5     6 ar
    11     5    20 ar
    12     6     7 ar
    13     6    23 ar
    14     7    33 1
    15     8     9 1
    16     8    13 ar
    17     8    25 ar
    18     9    10 1
    19     9    14 1
    20     9    15 1
    21    10    11 1
    22    10    34 1
    23    10    35 1
    24    11    12 1
    25    11    36 1
    26    11    37 1
    27    12    13 1
    28    12    16 1
    29    12    17 1
    30    13    26 ar
    31    14    38 1
    32    14    39 1
    33    14    40 1
    34    15    41 1
    35    15    42 1
    36    15    43 1
    37    16    44 1
    38    16    45 1
    39    16    46 1
    40    17    47 1
    41    17    48 1
    42    17    49 1
    43    20    21 ar
    44    20    50 1
    45    21    22 ar
    46    21    28 1
    47    22    23 ar
    48    22    51 1
    49    23    52 1
    50    24    25 ar
    51    24    27 ar
    52    24    28 1
    53    25    53 1
    54    26    27 ar
    55    26    54 1
    56    27    55 1
    57    28    29 2
    58    29    30 1
    59    30    56 1
@<TRIPOS>SUBSTRUCTURE
     1 254         1 TEMP              0 ****  ****    0 ROOT
