@<TRIPOS>MOLECULE
255
   55    58     1     0     0
SMALL
bcc


@<TRIPOS>ATOM
      1 O25          0.0000     0.0000     0.0000 o          1 255      -0.589300
      2 S31          1.4220     0.0000     0.0000 sy         1 255       1.041200
      3 O26          2.1990     0.0000     1.1890 o          1 255      -0.589300
      4 N24          1.8890    -1.3330    -0.8650 n7         1 255      -0.571100
      5 C30          3.3110    -1.6570    -0.9980 c3         1 255       0.187200
      6 C01          4.0610    -0.4480    -1.5610 c3         1 255      -0.028100
      7 C02          3.8830    -2.0170     0.3750 c3         1 255      -0.028100
      8 C03          3.4770    -2.8470    -1.9460 c3         1 255      -0.028100
      9 C20          1.9180     1.4190    -0.9200 ca         1 255      -0.160500
     10 C13          1.2390     1.7640    -2.0740 ca         1 255       0.009000
     11 C11          1.6240     2.8750    -2.7980 ca         1 255      -0.137000
     12 C17          2.6980     3.6480    -2.3630 cp         1 255       0.033000
     13 C10          3.3790     3.2960    -1.1990 ca         1 255      -0.137000
     14 C12          2.9820     2.1870    -0.4810 ca         1 255       0.009000
     15 C18          3.1160     4.8440    -3.1370 cp         1 255      -0.173300
     16 C15          2.4340     5.2010    -4.3090 ca         1 255       0.414200
     17 N22          2.7810     6.2490    -5.0120 nb         1 255      -0.561000
     18 C28          3.8030     7.0310    -4.6480 ca         1 255       0.396600
     19 C14          4.1600     8.1520    -5.4160 ca         1 255      -0.177300
     20 C06          5.2030     8.9410    -5.0330 ca         1 255      -0.056000
     21 C09          5.9340     8.6580    -3.8840 ca         1 255      -0.143000
     22 C27          5.6190     7.5680    -3.1000 ca         1 255       0.018600
     23 C29          4.5420     6.7360    -3.4740 ca         1 255      -0.168300
     24 C16          4.1830     5.6190    -2.7040 ca         1 255      -0.055000
     25 N23          6.3550     7.2900    -1.9510 nu         1 255      -0.300300
     26 C19          7.0320     8.3130    -1.2950 ca         1 255       0.491200
     27 N21          6.9170     9.5600    -1.7290 nb         1 255      -0.634000
     28 C07          7.5420    10.5590    -1.1340 ca         1 255       0.448200
     29 C04          8.3420    10.3380    -0.0310 ca         1 255      -0.275300
     30 C05          8.4890     9.0460     0.4550 ca         1 255      -0.016000
     31 C08          7.8170     8.0190    -0.1860 ca         1 255      -0.288300
     32 HN24         1.2000    -1.9210    -1.2900 hn         1 255       0.349800
     33 H011         3.5290    -0.0630    -2.4230 hc         1 255       0.017367
     34 H012         5.0590    -0.7480    -1.8580 hc         1 255       0.017367
     35 H013         4.1250     0.3220    -0.8020 hc         1 255       0.017367
     36 H021         4.4290    -1.1700     0.7720 hc         1 255       0.017367
     37 H022         3.0730    -2.2720     1.0480 hc         1 255       0.017367
     38 H023         4.5510    -2.8640     0.2780 hc         1 255       0.017367
     39 H031         3.1860    -2.5530    -2.9480 hc         1 255       0.017367
     40 H032         4.5120    -3.1650    -1.9500 hc         1 255       0.017367
     41 H033         2.8490    -3.6640    -1.6130 hc         1 255       0.017367
     42 H13          0.4040     1.1620    -2.4110 ha         1 255       0.123500
     43 H11          1.0910     3.1450    -3.7020 ha         1 255       0.116000
     44 H10          4.2130     3.8950    -0.8550 ha         1 255       0.116000
     45 H12          3.5100     1.9110     0.4240 ha         1 255       0.123500
     46 H15          1.5980     4.5960    -4.6400 h4         1 255      -0.014900
     47 H14          3.6040     8.3900    -6.3140 ha         1 255       0.118000
     48 H06          5.4680     9.8020    -5.6340 ha         1 255       0.103000
     49 H09          6.7590     9.3010    -3.6020 ha         1 255       0.158000
     50 H16          4.8690     5.2300    -1.9610 ha         1 255       0.112000
     51 HN23         6.4180     6.3510    -1.6120 hn         1 255       0.287800
     52 H07          7.4250    11.5660    -1.5170 h4         1 255      -0.020900
     53 H04          8.8520    11.1650     0.4480 ha         1 255       0.117000
     54 H05          9.1090     8.8470     1.3200 ha         1 255       0.106000
     55 H08          7.9090     6.9990     0.1670 ha         1 255       0.116000
@<TRIPOS>BOND
     1     1     2 2   
     2     2     3 2   
     3     2     4 1   
     4     2     9 1   
     5     4     5 1   
     6     4    32 1   
     7     5     6 1   
     8     5     7 1   
     9     5     8 1   
    10     6    33 1   
    11     6    34 1   
    12     6    35 1   
    13     7    36 1   
    14     7    37 1   
    15     7    38 1   
    16     8    39 1   
    17     8    40 1   
    18     8    41 1   
    19     9    10 ar  
    20     9    14 ar  
    21    10    11 ar  
    22    10    42 1   
    23    11    12 ar  
    24    11    43 1   
    25    12    13 ar  
    26    12    15 1   
    27    13    14 ar  
    28    13    44 1   
    29    14    45 1   
    30    15    16 ar  
    31    15    24 ar  
    32    16    17 ar  
    33    16    46 1   
    34    17    18 ar  
    35    18    19 ar  
    36    18    23 ar  
    37    19    20 ar  
    38    19    47 1   
    39    20    21 ar  
    40    20    48 1   
    41    21    22 ar  
    42    21    49 1   
    43    22    23 ar  
    44    22    25 1   
    45    23    24 ar  
    46    24    50 1   
    47    25    26 1   
    48    25    51 1   
    49    26    27 ar  
    50    26    31 ar  
    51    27    28 ar  
    52    28    29 ar  
    53    28    52 1   
    54    29    30 ar  
    55    29    53 1   
    56    30    31 ar  
    57    30    54 1   
    58    31    55 1   
@<TRIPOS>SUBSTRUCTURE
     1 255         1 TEMP              0 ****  ****    0 ROOT
