@<TRIPOS>MOLECULE
molecule
   55    58     1     0     0
SMALL
bcc


@<TRIPOS>ATOM
      1 O25          0.0000     0.0000     0.0000 o          1 255      -0.637800
      2 S31          1.4220     0.0000     0.0000 sy         1 255       1.426200
      3 O26          2.1990     0.0000     1.1890 o          1 255      -0.637800
      4 N24          1.8890    -1.3330    -0.8650 n7         1 255      -0.907100
      5 C30          3.3110    -1.6570    -0.9980 c3         1 255       0.245200
      6 C01          4.0610    -0.4480    -1.5610 c3         1 255      -0.105433
      7 C02          3.8830    -2.0170     0.3750 c3         1 255      -0.105433
      8 C03          3.4770    -2.8470    -1.9460 c3         1 255      -0.105433
      9 C20          1.9180     1.4190    -0.9200 ca         1 255      -0.314500
     10 C13          1.2390     1.7640    -2.0740 ca         1 255      -0.024500
     11 C11          1.6240     2.8750    -2.7980 ca         1 255      -0.149000
     12 C17          2.6980     3.6480    -2.3630 cp         1 255       0.027000
     13 C10          3.3790     3.2960    -1.1990 ca         1 255      -0.149000
     14 C12          2.9820     2.1870    -0.4810 ca         1 255      -0.024500
     15 C18          3.1160     4.8440    -3.1370 cp         1 255      -0.186300
     16 C15          2.4340     5.2010    -4.3090 ca         1 255       0.444200
     17 N22          2.7810     6.2490    -5.0120 nb         1 255      -0.675000
     18 C28          3.8030     7.0310    -4.6480 ca         1 255       0.441600
     19 C14          4.1600     8.1520    -5.4160 ca         1 255      -0.199300
     20 C06          5.2030     8.9410    -5.0330 ca         1 255      -0.088000
     21 C09          5.9340     8.6580    -3.8840 ca         1 255      -0.151000
     22 C27          5.6190     7.5680    -3.1000 ca         1 255       0.173600
     23 C29          4.5420     6.7360    -3.4740 ca         1 255      -0.181300
     24 C16          4.1830     5.6190    -2.7040 ca         1 255      -0.062000
     25 N23          6.3550     7.2900    -1.9510 nu         1 255      -0.765300
     26 C19          7.0320     8.3130    -1.2950 ca         1 255       0.688200
     27 N21          6.9170     9.5600    -1.7290 nb         1 255      -0.747000
     28 C07          7.5420    10.5590    -1.1340 ca         1 255       0.461200
     29 C04          8.3420    10.3380    -0.0310 ca         1 255      -0.301300
     30 C05          8.4890     9.0460     0.4550 ca         1 255      -0.051000
     31 C08          7.8170     8.0190    -0.1860 ca         1 255      -0.307300
     32 HN24         1.2000    -1.9210    -1.2900 hn         1 255       0.454800
     33 H011         3.5290    -0.0630    -2.4230 hc         1 255       0.046700
     34 H012         5.0590    -0.7480    -1.8580 hc         1 255       0.046700
     35 H013         4.1250     0.3220    -0.8020 hc         1 255       0.046700
     36 H021         4.4290    -1.1700     0.7720 hc         1 255       0.046700
     37 H022         3.0730    -2.2720     1.0480 hc         1 255       0.046700
     38 H023         4.5510    -2.8640     0.2780 hc         1 255       0.046700
     39 H031         3.1860    -2.5530    -2.9480 hc         1 255       0.046700
     40 H032         4.5120    -3.1650    -1.9500 hc         1 255       0.046700
     41 H033         2.8490    -3.6640    -1.6130 hc         1 255       0.046700
     42 H13          0.4040     1.1620    -2.4110 ha         1 255       0.150500
     43 H11          1.0910     3.1450    -3.7020 ha         1 255       0.137000
     44 H10          4.2130     3.8950    -0.8550 ha         1 255       0.137000
     45 H12          3.5100     1.9110     0.4240 ha         1 255       0.150500
     46 H15          1.5980     4.5960    -4.6400 h4         1 255       0.026100
     47 H14          3.6040     8.3900    -6.3140 ha         1 255       0.149000
     48 H06          5.4680     9.8020    -5.6340 ha         1 255       0.136000
     49 H09          6.7590     9.3010    -3.6020 ha         1 255       0.179000
     50 H16          4.8690     5.2300    -1.9610 ha         1 255       0.132000
     51 HN23         6.4180     6.3510    -1.6120 hn         1 255       0.453800
     52 H07          7.4250    11.5660    -1.5170 h4         1 255       0.026100
     53 H04          8.8520    11.1650     0.4480 ha         1 255       0.140000
     54 H05          9.1090     8.8470     1.3200 ha         1 255       0.140000
     55 H08          7.9090     6.9990     0.1670 ha         1 255       0.136000
@<TRIPOS>BOND
     1    20    19 ar  
     2    20    21 ar  
     3    19    18 ar  
     4    21    22 ar  
     5    18    17 ar  
     6    18    23 ar  
     7    17    16 ar  
     8    22    23 ar  
     9    22    25 1   
    10    23    24 ar  
    11    25    26 1   
    12    16    15 ar  
    13    24    15 ar  
    14    31    26 ar  
    15    31    30 ar  
    16    15    12 1   
    17    26    27 ar  
    18    30    29 ar  
    19    27    28 ar  
    20    12    11 ar  
    21    12    13 ar  
    22    11    10 ar  
    23    29    28 ar  
    24    13    14 ar  
    25    10     9 ar  
    26    14     9 ar  
    27     9     2 1   
    28     3     2 2   
    29     2     1 2   
    30     2     4 1   
    31     4     5 1   
    32     8     5 1   
    33     5     7 1   
    34     5     6 1   
    35     4    32 1   
    36     6    33 1   
    37     6    34 1   
    38     6    35 1   
    39     7    36 1   
    40     7    37 1   
    41     7    38 1   
    42     8    39 1   
    43     8    40 1   
    44     8    41 1   
    45    10    42 1   
    46    11    43 1   
    47    13    44 1   
    48    14    45 1   
    49    16    46 1   
    50    19    47 1   
    51    20    48 1   
    52    21    49 1   
    53    24    50 1   
    54    25    51 1   
    55    28    52 1   
    56    29    53 1   
    57    30    54 1   
    58    31    55 1   
@<TRIPOS>SUBSTRUCTURE
     1 255         1 TEMP              0 ****  ****    0 ROOT
