@<TRIPOS>MOLECULE
256
   20    20     1     0     0
SMALL
bcc


@<TRIPOS>ATOM
      1 C1          0.0220   -0.0910   -0.0490 ca        1 256     -0.194000
      2 C2          1.3960    0.1260    0.0250 ca        1 256     -0.156500
      3 C3          2.0340    0.1770    1.2640 ca        1 256     -0.121000
      4 C4          1.3100    0.0160    2.4550 ca        1 256      0.058700
      5 C5         -0.0800   -0.2010    2.3670 ca        1 256     -0.121000
      6 C6         -0.7110   -0.2540    1.1300 ca        1 256     -0.156500
      7 C7          1.9810    0.0560    3.7670 c3        1 256     -0.336600
      8 C8          1.7140   -1.2780    4.5220 c         1 256      0.960600
      9 O9          2.7100   -2.0310    4.7300 o         1 256     -0.856300
     10 S10         1.6640    1.5730    4.6860 s6        1 256      1.411800
     11 O12         0.2910    1.9170    4.5650 o         1 256     -0.758867
     12 O13         0.5350   -1.5870    4.8590 o         1 256     -0.856300
     13 O14         2.0820    1.3990    6.0280 o         1 256     -0.758867
     14 O15         2.4990    2.5270    4.0170 o         1 256     -0.758867
     15 H1         -0.4810   -0.1320   -1.0230 ha        1 256      0.080000
     16 H2          1.9800    0.2580   -0.8960 ha        1 256      0.087000
     17 H3          3.1180    0.3550    1.3130 ha        1 256      0.154000
     18 H5         -0.6350   -0.3340    3.3150 ha        1 256      0.154000
     19 H6         -1.7950   -0.4230    1.0770 ha        1 256      0.087000
     20 H7          3.0950    0.0700    3.6040 h1        1 256      0.080700
@<TRIPOS>BOND
     1    1    2 ar  
     2    1    6 ar  
     3    1   15 1   
     4    2    3 ar  
     5    2   16 1   
     6    3    4 ar  
     7    3   17 1   
     8    4    5 ar  
     9    4    7 1   
    10    5    6 ar  
    11    5   18 1   
    12    6   19 1   
    13    7    8 1   
    14    7   10 1   
    15    7   20 1   
    16    8    9 1   
    17    8   12 1   
    18   10   11 1   
    19   10   13 1   
    20   10   14 1   
@<TRIPOS>SUBSTRUCTURE
     1 256         1 TEMP              0 ****  ****    0 ROOT
