@<TRIPOS>MOLECULE
molecule
   20    20     1     0     0
SMALL
bcc


@<TRIPOS>ATOM
      1 C1           0.0000     0.0000     0.0000 ca         1 256      -0.181000
      2 C2           1.3830     0.0000     0.0000 ca         1 256      -0.165000
      3 C3           2.0740     0.0000     1.1970 ca         1 256      -0.098500
      4 C4           1.3830     0.0000     2.3940 ca         1 256       0.028700
      5 C5           0.0010    -0.0060     2.3950 ca         1 256      -0.098500
      6 C6          -0.6910    -0.0010     1.1970 ca         1 256      -0.165000
      7 C7           2.1380    -0.0010     3.6990 c3         1 256      -0.286600
      8 C8           1.7730    -1.2310     4.4890 c          1 256       0.939600
      9 O9           2.6680    -1.7790     5.3270 o          1 256      -0.853300
     10 S10          1.7000     1.4810     4.6500 s6         1 256       1.268800
     11 O12          0.1970     1.3360     4.8450 o          1 256      -0.720533
     12 O13          0.6770    -1.7250     4.3680 o          1 256      -0.853300
     13 O14          2.1970     1.4150     5.9800 o          1 256      -0.720533
     14 O15          1.8030     2.6580     3.8630 o          1 256      -0.720533
     15 H1          -0.5420     0.0020    -0.9380 ha         1 256       0.077000
     16 H2           1.9250     0.0000    -0.9380 ha         1 256       0.087500
     17 H3           3.1570     0.0020     1.1970 ha         1 256       0.159000
     18 H5          -0.5410    -0.0060     3.3330 ha         1 256       0.159000
     19 H6          -1.7740    -0.0030     1.1980 ha         1 256       0.087500
     20 H7           3.2030    -0.0010     3.5000 h1         1 256       0.057700
@<TRIPOS>BOND
     1     1     2 ar  
     2     1     6 ar  
     3     1    15 1   
     4     2     3 ar  
     5     2    16 1   
     6     3     4 ar  
     7     3    17 1   
     8     4     5 ar  
     9     4     7 1   
    10     5     6 ar  
    11     5    18 1   
    12     6    19 1   
    13     7     8 1   
    14     7    10 1   
    15     7    20 1   
    16     8     9 1   
    17     8    12 1   
    18    10    11 1   
    19    10    13 1   
    20    10    14 1   
@<TRIPOS>SUBSTRUCTURE
     1 256         1 TEMP              0 ****  ****    0 ROOT
