@<TRIPOS>MOLECULE
molecule
   19    19     1     0     0
SMALL
bcc


@<TRIPOS>ATOM
      1 CAE          0.0000     0.0000     0.0000 ca         1 258      -0.189000
      2 CAC          1.3810     0.0000     0.0000 ca         1 258      -0.090500
      3 CAB          2.0730     0.0000     1.1970 ca         1 258      -0.166000
      4 CAD          1.3860     0.0010     2.3970 ca         1 258      -0.090500
      5 CAF          0.0040    -0.0000     2.4020 ca         1 258      -0.189000
      6 CAJ         -0.6930     0.0000     1.2020 ca         1 258       0.142100
      7 OAI         -2.0510     0.0010     1.2050 os         1 258      -0.323900
      8 CAH         -2.6980     0.0010     2.4790 c3         1 258       0.129400
      9 CAG         -4.2150     0.0020     2.2810 c3         1 258       0.049000
     10 ClAA        -4.7200    -1.5380     1.4900 cl         1 258      -0.188400
     11 HAE         -0.5420     0.0000    -0.9380 ha         1 258       0.138000
     12 HAC          1.9220    -0.0010    -0.9380 ha         1 258       0.132000
     13 HAB          3.1570     0.0000     1.1950 ha         1 258       0.130000
     14 HAD          1.9310     0.0010     3.3330 ha         1 258       0.132000
     15 HAF         -0.5340     0.0000     3.3420 ha         1 258       0.138000
     16 HAH1        -2.4060    -0.8840     3.0320 h1         1 258       0.047200
     17 HAH2        -2.4050     0.8860     3.0330 h1         1 258       0.047200
     18 HAG1        -4.4970     0.8390     1.6540 h1         1 258       0.075700
     19 HAG2        -4.7050     0.0910     3.2430 h1         1 258       0.075700
@<TRIPOS>BOND
     1     1     2 ar  
     2     1     6 ar  
     3     2     3 ar  
     4     3     4 ar  
     5     4     5 ar  
     6     5     6 ar  
     7     6     7 1   
     8     7     8 1   
     9     8     9 1   
    10     9    10 1   
    11     1    11 1   
    12     2    12 1   
    13     3    13 1   
    14     4    14 1   
    15     5    15 1   
    16     8    16 1   
    17     8    17 1   
    18     9    18 1   
    19     9    19 1   
@<TRIPOS>SUBSTRUCTURE
     1 258         1 TEMP              0 ****  ****    0 ROOT
