@<TRIPOS>MOLECULE
258
   19    19     1     0     0
SMALL
bcc


@<TRIPOS>ATOM
      1 CAE        -0.0390    0.0910    0.0450 ca        1 258     -0.178000
      2 CAC         1.3490    0.0430   -0.0110 ca        1 258     -0.097500
      3 CAB         2.1050   -0.0250    1.1620 ca        1 258     -0.162000
      4 CAD         1.4670   -0.0430    2.4000 ca        1 258     -0.097500
      5 CAF         0.0740    0.0070    2.4820 ca        1 258     -0.178000
      6 CAJ        -0.6740    0.0730    1.3010 ca        1 258      0.125100
      7 OAI        -2.0530    0.1460    1.2490 os        1 258     -0.330900
      8 CAH        -2.7360   -0.0260    2.4960 c3        1 258      0.120400
      9 CAG        -4.2160   -0.0400    2.1670 c3        1 258      0.027000
     10 CLAA       -4.8140   -1.6510    1.8230 cl        1 258     -0.181400
     11 HAE        -0.6480    0.1420   -0.8680 ha        1 258      0.142500
     12 HAC         1.8540    0.0570   -0.9890 ha        1 258      0.133000
     13 HAB         3.2020   -0.0640    1.1070 ha        1 258      0.133000
     14 HAD         2.0610   -0.0960    3.3250 ha        1 258      0.133000
     15 HAF        -0.4130   -0.0060    3.4660 ha        1 258      0.142500
     16 HAH1       -2.5020    0.8480    3.1620 h1        1 258      0.053700
     17 HAH2       -2.4040   -0.9770    2.9890 h1        1 258      0.053700
     18 HAG1       -4.8000    0.3360    3.0410 h1        1 258      0.080700
     19 HAG2       -4.4250    0.5830    1.2630 h1        1 258      0.080700
@<TRIPOS>BOND
     1    1    2 ar  
     2    1    6 ar  
     3    1   11 1   
     4    2    3 ar  
     5    2   12 1   
     6    3    4 ar  
     7    3   13 1   
     8    4    5 ar  
     9    4   14 1   
    10    5    6 ar  
    11    5   15 1   
    12    6    7 1   
    13    7    8 1   
    14    8    9 1   
    15    8   16 1   
    16    8   17 1   
    17    9   10 1   
    18    9   18 1   
    19    9   19 1   
@<TRIPOS>SUBSTRUCTURE
     1 258         1 TEMP              0 ****  ****    0 ROOT
