@<TRIPOS>MOLECULE
259
   18    18     1     0     0
SMALL
bcc


@<TRIPOS>ATOM
      1 CAA          0.0000     0.0000     0.0000 c3         1 259       0.107000
      2 SAH          1.8140     0.0000     0.0000 ss         1 259      -0.306000
      3 CAI          2.2100     0.0000     1.7170 ca         1 259       0.108900
      4 CAD          3.5390    -0.0010     2.1260 ca         1 259      -0.125500
      5 CAF          3.8450    -0.0010     3.4720 ca         1 259       0.006000
      6 CAJ          2.8310    -0.0020     4.4130 ca         1 259      -0.461200
      7 NAK          3.1640    -0.0030     5.8560 no         1 259       1.049200
      8 OAC          4.3290    -0.0030     6.2120 o          1 259      -0.450500
      9 OAB          2.2730    -0.0030     6.6860 o          1 259      -0.450500
     10 CAG          1.5090    -0.0020     4.0100 ca         1 259       0.006000
     11 CAE          1.1950     0.0050     2.6660 ca         1 259      -0.125500
     12 HAA1        -0.3610     0.8850     0.5090 h1         1 259       0.040367
     13 HAA2        -0.3610    -0.0020    -1.0210 h1         1 259       0.040367
     14 HAA3        -0.3610    -0.8840     0.5120 h1         1 259       0.040367
     15 HAD          4.3330    -0.0000     1.3890 ha         1 259       0.127500
     16 HAF          4.8800    -0.0010     3.7910 ha         1 259       0.133000
     17 HAG          0.7180    -0.0000     4.7500 ha         1 259       0.133000
     18 HAE          0.1580     0.0050     2.3520 ha         1 259       0.127500
@<TRIPOS>BOND
     1     1     2 1   
     2     1    12 1   
     3     1    13 1   
     4     1    14 1   
     5     2     3 1   
     6     3     4 ar  
     7     3    11 ar  
     8     4     5 ar  
     9     4    15 1   
    10     5     6 ar  
    11     5    16 1   
    12     6     7 1   
    13     6    10 ar  
    14     7     8 1   
    15     7     9 1   
    16    10    11 ar  
    17    10    17 1   
    18    11    18 1   
@<TRIPOS>SUBSTRUCTURE
     1 259         1 TEMP              0 ****  ****    0 ROOT
