@<TRIPOS>MOLECULE
molecule
   18    18     1     0     0
SMALL
bcc


@<TRIPOS>ATOM
      1 CAA          0.0000     0.0000     0.0000 c3         1 259      -0.026000
      2 SAH          1.8140     0.0000     0.0000 ss         1 259      -0.217000
      3 CAI          2.2100     0.0000     1.7170 ca         1 259       0.073900
      4 CAD          3.5390    -0.0010     2.1260 ca         1 259      -0.144500
      5 CAF          3.8450    -0.0010     3.4720 ca         1 259      -0.052000
      6 CAJ          2.8310    -0.0020     4.4130 ca         1 259      -0.171200
      7 NAK          3.1640    -0.0030     5.8560 no         1 259       0.295200
      8 OAC          4.3290    -0.0030     6.2120 o          1 259      -0.207500
      9 OAB          2.2730    -0.0030     6.6860 o          1 259      -0.207500
     10 CAG          1.5090    -0.0020     4.0100 ca         1 259      -0.052000
     11 CAE          1.1950     0.0050     2.6660 ca         1 259      -0.144500
     12 HAA1        -0.3610     0.8850     0.5090 h1         1 259       0.070700
     13 HAA2        -0.3610    -0.0020    -1.0210 h1         1 259       0.070700
     14 HAA3        -0.3610    -0.8840     0.5120 h1         1 259       0.070700
     15 HAD          4.3330    -0.0000     1.3890 ha         1 259       0.152500
     16 HAF          4.8800    -0.0010     3.7910 ha         1 259       0.167500
     17 HAG          0.7180    -0.0000     4.7500 ha         1 259       0.167500
     18 HAE          0.1580     0.0050     2.3520 ha         1 259       0.152500
@<TRIPOS>BOND
     1     1     2 1
     2     2     3 1
     3     3     4 ar
     4     3    11 ar
     5     4     5 ar
     6     5     6 ar
     7     6     7 1
     8     6    10 ar
     9     7     8 1
    10     7     9 1
    11    10    11 ar
    12     1    12 1
    13     1    13 1
    14     1    14 1
    15     4    15 1
    16     5    16 1
    17    10    17 1
    18    11    18 1
@<TRIPOS>SUBSTRUCTURE
     1 259         1 TEMP              0 ****  ****    0 ROOT
