@<TRIPOS>MOLECULE
molecule
   68    70     1     0     0
SMALL
bcc


@<TRIPOS>ATOM
      1 O38          0.0000     0.0000     0.0000 o          1 25B      -0.617800
      2 S29          1.4220     0.0000     0.0000 sy         1 25B       1.191300
      3 O37          2.1550     0.0000     1.2170 o          1 25B      -0.617800
      4 C29          1.8550    -1.5250    -0.7680 ca         1 25B      -0.297500
      5 C30          0.9860    -2.1200    -1.6630 ca         1 25B      -0.030000
      6 C31          1.3250    -3.3180    -2.2650 ca         1 25B      -0.149500
      7 C32          2.5350    -3.9190    -1.9740 ca         1 25B      -0.074000
      8 C33          3.4060    -3.3230    -1.0800 ca         1 25B      -0.149500
      9 C34          3.0680    -2.1240    -0.4810 ca         1 25B      -0.030000
     10 C37          2.0570     1.2710    -1.1270 c3         1 25B      -0.208600
     11 C10          1.7390     2.6580    -0.5630 c3         1 25B      -0.075400
     12 C11          2.2760     3.7300    -1.5130 c3         1 25B       0.123700
     13 C20          2.0690     5.1120    -0.8910 c3         1 25B      -0.097400
     14 C21          2.7170     6.1740    -1.7810 c3         1 25B      -0.080400
     15 C23          2.5100     7.5570    -1.1590 c3         1 25B      -0.082400
     16 C24          3.1580     8.6190    -2.0500 c3         1 25B      -0.091100
     17 N12          1.5590     3.6560    -2.7890 ns         1 25B      -0.579900
     18 C13          2.1410     4.1080    -3.9170 c          1 25B       0.668100
     19 O39          3.2590     4.5770    -3.8760 o          1 25B      -0.613100
     20 C14          1.4030     4.0320    -5.2270 c3         1 25B      -0.133700
     21 C15          1.0720     2.5720    -5.5420 c3         1 25B      -0.074400
     22 C16          0.3220     2.4950    -6.8740 c3         1 25B      -0.080400
     23 C17          1.2010     3.0700    -7.9880 c3         1 25B      -0.080400
     24 C18          1.5310     4.5300    -7.6730 c3         1 25B      -0.073400
     25 C19          2.2810     4.6080    -6.3410 c3         1 25B      -0.144700
     26 C39          2.6070     6.0460    -6.0310 c          1 25B       0.603700
     27 O41          1.8690     6.6960    -5.3220 o          1 25B      -0.534100
     28 C40          3.8210     6.6620    -6.5880 ca         1 25B      -0.162600
     29 C41          4.1280     7.9960    -6.3020 ca         1 25B      -0.070500
     30 C45          4.6790     5.9130    -7.4030 ca         1 25B      -0.070500
     31 C44          5.8140     6.4960    -7.9210 ca         1 25B      -0.138000
     32 C43          6.1090     7.8210    -7.6380 ca         1 25B       0.052400
     33 Cl22         7.5420     8.5470    -8.2940 cl         1 25B      -0.104400
     34 C42          5.2670     8.5660    -6.8280 ca         1 25B      -0.138000
     35 H30          0.0370    -1.6490    -1.8920 ha         1 25B       0.150500
     36 H31          0.6430    -3.7850    -2.9660 ha         1 25B       0.137500
     37 H32          2.8010    -4.8580    -2.4440 ha         1 25B       0.134000
     38 H33          4.3560    -3.7930    -0.8540 ha         1 25B       0.137500
     39 H34          3.7500    -1.6560     0.2190 ha         1 25B       0.150500
     40 H37          1.5890     1.1600    -2.0980 h1         1 25B       0.101700
     41 H37A         3.1300     1.1600    -1.2280 h1         1 25B       0.101700
     42 H10          2.2070     2.7680     0.4080 hc         1 25B       0.064200
     43 H10A         0.6670     2.7690    -0.4620 hc         1 25B       0.064200
     44 H11          3.3330     3.5650    -1.6830 h1         1 25B       0.083700
     45 H20          1.0090     5.3130    -0.8020 hc         1 25B       0.045200
     46 H20A         2.5250     5.1380     0.0910 hc         1 25B       0.045200
     47 H21          3.7780     5.9730    -1.8700 hc         1 25B       0.060700
     48 H21A         2.2610     6.1480    -2.7640 hc         1 25B       0.060700
     49 H23          2.9660     7.5830    -0.1770 hc         1 25B       0.034700
     50 H23A         1.4490     7.7580    -1.0710 hc         1 25B       0.034700
     51 H24          2.5660     8.7470    -2.9490 hc         1 25B       0.033367
     52 H24A         3.2070     9.5590    -1.5140 hc         1 25B       0.033367
     53 H24B         4.1590     8.3040    -2.3180 hc         1 25B       0.033367
     54 HN12         0.6220     3.3070    -2.8150 hn         1 25B       0.314500
     55 H14          0.4850     4.6030    -5.1630 hc         1 25B       0.087700
     56 H15          1.9910     2.0020    -5.6130 hc         1 25B       0.045700
     57 H15A         0.4490     2.1660    -4.7550 hc         1 25B       0.045700
     58 H16          0.0900     1.4610    -7.0970 hc         1 25B       0.046200
     59 H16A        -0.5930     3.0700    -6.8050 hc         1 25B       0.046200
     60 H17          0.6680     3.0180    -8.9300 hc         1 25B       0.045700
     61 H17A         2.1190     2.4990    -8.0540 hc         1 25B       0.045700
     62 H18          0.6130     5.1000    -7.6020 hc         1 25B       0.052200
     63 H18A         2.1540     4.9360    -8.4610 hc         1 25B       0.052200
     64 H19          3.1960     4.0320    -6.4110 hc         1 25B       0.080700
     65 H41          3.4700     8.5800    -5.6690 ha         1 25B       0.149500
     66 H45          4.4500     4.8780    -7.6250 ha         1 25B       0.149500
     67 H44          6.4790     5.9180    -8.5510 ha         1 25B       0.146500
     68 H42          5.5050     9.6000    -6.6090 ha         1 25B       0.146500
@<TRIPOS>BOND
     1     2     1 2   
     2     3     2 2   
     3    10     2 1   
     4     4     2 1   
     5     5     4 ar  
     6     4     9 ar  
     7     6     5 ar  
     8     5    35 1   
     9     6     7 ar  
    10     6    36 1   
    11     7     8 ar  
    12     7    37 1   
    13     8     9 ar  
    14     8    38 1   
    15     9    39 1   
    16    11    10 1   
    17    10    40 1   
    18    10    41 1   
    19    12    11 1   
    20    11    42 1   
    21    11    43 1   
    22    13    12 1   
    23    17    12 1   
    24    12    44 1   
    25    14    13 1   
    26    13    45 1   
    27    13    46 1   
    28    15    14 1   
    29    14    47 1   
    30    14    48 1   
    31    15    16 1   
    32    15    49 1   
    33    15    50 1   
    34    16    51 1   
    35    16    52 1   
    36    16    53 1   
    37    18    17 1   
    38    17    54 1   
    39    19    18 2   
    40    20    18 1   
    41    25    20 1   
    42    20    21 1   
    43    20    55 1   
    44    22    21 1   
    45    21    56 1   
    46    21    57 1   
    47    23    22 1   
    48    22    58 1   
    49    22    59 1   
    50    24    23 1   
    51    23    60 1   
    52    23    61 1   
    53    24    25 1   
    54    24    62 1   
    55    24    63 1   
    56    26    25 1   
    57    25    64 1   
    58    28    26 1   
    59    26    27 2   
    60    30    28 ar  
    61    29    28 ar  
    62    34    29 ar  
    63    29    65 1   
    64    31    30 ar  
    65    30    66 1   
    66    32    31 ar  
    67    31    67 1   
    68    33    32 1   
    69    32    34 ar  
    70    34    68 1   
@<TRIPOS>SUBSTRUCTURE
     1 25B         1 TEMP              0 ****  ****    0 ROOT
