@<TRIPOS>MOLECULE
molecule
   71    74     1     0     0
SMALL
bcc


@<TRIPOS>ATOM
      1 C1           0.0000     0.0000     0.0000 c3         1 25D      -0.041800
      2 C2           1.5070     0.0000     0.0000 ca         1 25D      -0.098300
      3 C3           2.1970     0.0000     1.1990 ca         1 25D      -0.126500
      4 C4           3.5780     0.0010     1.2020 ca         1 25D      -0.078800
      5 C5           4.3290     0.0000     2.5080 c3         1 25D      -0.045800
      6 C6           4.2740     0.0010     0.0000 ca         1 25D       0.074600
      7 N7           5.6730     0.0020     0.0000 ns         1 25D      -0.489100
      8 C8           6.3470    -0.8540     0.7940 c          1 25D       0.780100
      9 O9           5.7410    -1.6680     1.4630 o          1 25D      -0.664100
     10 N10          7.6930    -0.8070     0.8450 ns         1 25D      -0.470100
     11 C11          8.3850    -1.6160     1.7460 ca         1 25D       0.121600
     12 C12          7.9550    -2.8910     1.9780 ca         1 25D      -0.142000
     13 C13          8.6470    -3.7110     2.8840 ca         1 25D      -0.012000
     14 C14          8.2230    -5.0270     3.1370 ca         1 25D      -0.116000
     15 C15          8.9120    -5.8010     4.0200 ca         1 25D      -0.134000
     16 C16         10.0370    -5.3080     4.6810 ca         1 25D      -0.146000
     17 C17         10.4780    -4.0390     4.4620 ca         1 25D      -0.107000
     18 C18          9.7920    -3.2090     3.5560 ca         1 25D      -0.058000
     19 C19         10.2220    -1.8980     3.3090 ca         1 25D      -0.088000
     20 C20          9.5260    -1.1100     2.4070 ca         1 25D      -0.132600
     21 C21          9.9730     0.2710     2.1430 c          1 25D       0.679700
     22 O22          9.3220     0.9920     1.4120 o          1 25D      -0.618100
     23 N23         11.1050     0.7330     2.7100 ns         1 25D      -0.528900
     24 C24         11.5500     2.1040     2.4480 c3         1 25D       0.023400
     25 C25         10.4740     3.0870     2.9150 c3         1 25D      -0.092100
     26 C26         12.8500     2.3730     3.2080 c3         1 25D      -0.054700
     27 C27         13.9580     1.4760     2.6550 c3         1 25D      -0.074400
     28 C28         15.2590     1.7440     3.4150 c3         1 25D      -0.081900
     29 C29         15.6570     3.2110     3.2410 c3         1 25D      -0.077400
     30 C30         14.5480     4.1090     3.7950 c3         1 25D      -0.081900
     31 C31         13.2470     3.8400     3.0350 c3         1 25D      -0.074400
     32 C32         11.7860     2.2820     0.9700 c          1 25D       0.901600
     33 O33         11.5370     3.3400     0.4420 o          1 25D      -0.836800
     34 O34         12.2710     1.2640     0.2410 o          1 25D      -0.836800
     35 C35          3.5780     0.0010    -1.2020 ca         1 25D      -0.078800
     36 C36          4.3290     0.0020    -2.5080 c3         1 25D      -0.045800
     37 C37          2.1970    -0.0050    -1.1990 ca         1 25D      -0.126500
     38 H1          -0.3610     1.0060    -0.1760 hc         1 25D       0.036367
     39 H1A         -0.3610    -0.3510     0.9590 hc         1 25D       0.036367
     40 H1B         -0.3610    -0.6550    -0.7830 hc         1 25D       0.036367
     41 H3           1.6540     0.0090     2.1360 ha         1 25D       0.126000
     42 H5           3.7570     0.5380     3.2540 hc         1 25D       0.047533
     43 H5A          5.2890     0.4830     2.3730 hc         1 25D       0.047533
     44 H5B          4.4820    -1.0210     2.8370 hc         1 25D       0.047533
     45 HN7          6.1730     0.6520    -0.5730 hn         1 25D       0.332500
     46 HN10         8.1980    -0.2380     0.1950 hn         1 25D       0.365500
     47 H12          7.1210    -3.2920     1.4140 ha         1 25D       0.163000
     48 H14          7.3510    -5.4250     2.6320 ha         1 25D       0.131000
     49 H15          8.5820    -6.8140     4.2120 ha         1 25D       0.117000
     50 H16         10.5670    -5.9440     5.3790 ha         1 25D       0.117000
     51 H17         11.3530    -3.6690     4.9830 ha         1 25D       0.127000
     52 H19         11.0970    -1.5070     3.8140 ha         1 25D       0.137000
     53 HN23        11.6220     0.1510     3.3390 hn         1 25D       0.294500
     54 H25          9.5450     2.8780     2.3980 hc         1 25D       0.037033
     55 H25A        10.3250     2.9790     3.9820 hc         1 25D       0.037033
     56 H25B        10.7900     4.0990     2.6940 hc         1 25D       0.037033
     57 H26         12.7090     2.1620     4.2610 hc         1 25D       0.018700
     58 H27         14.1050     1.6910     1.6030 hc         1 25D       0.064700
     59 H27A        13.6760     0.4370     2.7800 hc         1 25D       0.064700
     60 H28         16.0440     1.1090     3.0210 hc         1 25D       0.023700
     61 H28A        15.1110     1.5340     4.4670 hc         1 25D       0.023700
     62 H29         16.5770     3.4010     3.7820 hc         1 25D       0.031700
     63 H29A        15.8000     3.4230     2.1890 hc         1 25D       0.031700
     64 H30         14.4020     3.8930     4.8460 hc         1 25D       0.023700
     65 H30A        14.8300     5.1470     3.6700 hc         1 25D       0.023700
     66 H31         12.4630     4.4740     3.4290 hc         1 25D       0.064700
     67 H31A        13.3950     4.0520     1.9830 hc         1 25D       0.064700
     68 H36          3.6240    -0.0190    -3.3300 hc         1 25D       0.047533
     69 H36A         4.9680    -0.8720    -2.5570 hc         1 25D       0.047533
     70 H36B         4.9360     0.8970    -2.5750 hc         1 25D       0.047533
     71 H37          1.6530    -0.0050    -2.1360 ha         1 25D       0.126000
@<TRIPOS>BOND
     1     1     2 1   
     2     1    38 1   
     3     1    39 1   
     4     1    40 1   
     5     2    37 ar  
     6     2     3 ar  
     7     3     4 ar  
     8     3    41 1   
     9     4     6 ar  
    10     4     5 1   
    11     5    42 1   
    12     5    43 1   
    13     5    44 1   
    14    35     6 ar  
    15     6     7 1   
    16     8     7 1   
    17     7    45 1   
    18    10     8 1   
    19     8     9 2   
    20    11    10 1   
    21    10    46 1   
    22    20    11 ar  
    23    11    12 ar  
    24    13    12 ar  
    25    12    47 1   
    26    18    13 ar  
    27    13    14 ar  
    28    15    14 ar  
    29    14    48 1   
    30    16    15 ar  
    31    15    49 1   
    32    17    16 ar  
    33    16    50 1   
    34    17    18 ar  
    35    17    51 1   
    36    19    18 ar  
    37    19    20 ar  
    38    19    52 1   
    39    21    20 1   
    40    23    21 1   
    41    21    22 2   
    42    24    23 1   
    43    23    53 1   
    44    32    24 1   
    45    26    24 1   
    46    24    25 1   
    47    25    54 1   
    48    25    55 1   
    49    25    56 1   
    50    27    26 1   
    51    26    31 1   
    52    26    57 1   
    53    28    27 1   
    54    27    58 1   
    55    27    59 1   
    56    28    29 1   
    57    28    60 1   
    58    28    61 1   
    59    29    30 1   
    60    29    62 1   
    61    29    63 1   
    62    30    31 1   
    63    30    64 1   
    64    30    65 1   
    65    31    66 1   
    66    31    67 1   
    67    33    32 1   
    68    32    34 1   
    69    37    35 ar  
    70    35    36 1   
    71    36    68 1   
    72    36    69 1   
    73    36    70 1   
    74    37    71 1   
@<TRIPOS>SUBSTRUCTURE
     1 25D         1 TEMP              0 ****  ****    0 ROOT
