@<TRIPOS>MOLECULE
25E
   43    44     1     0     0
SMALL
bcc


@<TRIPOS>ATOM
      1 C1           0.0000     0.0000     0.0000 c3         1 25E       0.176500
      2 C2           1.5300     0.0000     0.0000 c3         1 25E       0.134100
      3 O2           2.0090    -1.1660    -0.6720 oh         1 25E      -0.573800
      4 C3           2.0330     0.0000     1.4470 c3         1 25E       0.147100
      5 O3           3.4590     0.0760     1.4580 oh         1 25E      -0.590800
      6 C4           1.4500     1.2140     2.1790 c3         1 25E       0.137100
      7 O4           1.8540     1.1850     3.5490 oh         1 25E      -0.578800
      8 C5          -0.0770     1.1660     2.0940 c3         1 25E       0.172100
      9 O5          -0.4770     1.1380     0.7220 os         1 25E      -0.388600
     10 C6          -0.6650     2.4070     2.7700 c3         1 25E       0.224400
     11 O6          -2.0900     2.3060     2.7940 oh         1 25E      -0.572800
     12 NAL         -0.4890     0.0580    -1.3800 ns         1 25E      -0.010900
     13 CAM         -1.6150    -0.5980    -1.7250 cs         1 25E       0.314400
     14 NAN         -2.0640    -0.5440    -2.9940 ns         1 25E       0.089100
     15 SAO         -2.4750    -1.4970    -0.5490 s          1 25E      -0.704400
     16 NAP         -1.3610     0.1930    -3.9560 n2         1 25E      -0.580300
     17 CAQ         -1.8530     0.3430    -5.1470 ce         1 25E       0.488800
     18 CAR         -3.3000     0.1770    -5.3730 ca         1 25E      -0.226900
     19 CAS         -4.1790     0.1400    -4.2870 ca         1 25E      -0.075000
     20 CAT         -5.5320    -0.0140    -4.5020 ca         1 25E      -0.131000
     21 CAU         -6.0220    -0.1340    -5.7960 ca         1 25E       0.149100
     22 CAV         -5.1520    -0.0980    -6.8790 ca         1 25E      -0.131000
     23 CAW         -3.7990     0.0620    -6.6730 ca         1 25E      -0.075000
     24 OAX         -7.3550    -0.2870    -6.0040 oh         1 25E      -0.496100
     25 H1          -0.3590    -0.9040     0.4770 h2         1 25E       0.101700
     26 H2           1.8900     0.8880    -0.5060 h1         1 25E       0.016700
     27 HO2          2.7960    -0.9550    -1.1460 ho         1 25E       0.400000
     28 H3           1.7090    -0.9080     1.9420 h1         1 25E       0.034700
     29 HO3          3.8090    -0.6600     1.9320 ho         1 25E       0.404000
     30 H4           1.8090     2.1230     1.7100 h1         1 25E       0.019700
     31 HO4          2.5230     1.8340     3.6940 ho         1 25E       0.398000
     32 H5          -0.4360     0.2740     2.5920 h1         1 25E       0.042700
     33 H6          -0.2910     2.4770     3.7840 h1         1 25E      -0.004300
     34 H6A         -0.3740     3.2920     2.2160 h1         1 25E      -0.004300
     35 HO6         -2.4400     2.9440     3.3940 ho         1 25E       0.386000
     36 HNAL        -0.0070     0.6150    -2.0580 hn         1 25E       0.179500
     37 HNAN        -2.8640    -1.0810    -3.2640 hn         1 25E       0.229500
     38 HAQ         -1.2860     0.9080    -5.8780 h4         1 25E      -0.002200
     39 HAS         -3.7970     0.2330    -3.2770 ha         1 25E       0.124000
     40 HAT         -6.2130    -0.0430    -3.6600 ha         1 25E       0.122500
     41 HAV         -5.5390    -0.1900    -7.8860 ha         1 25E       0.122500
     42 HAW         -3.1210     0.0900    -7.5180 ha         1 25E       0.124000
     43 HOAX        -7.7290     0.5370    -6.2690 ho         1 25E       0.408000
@<TRIPOS>BOND
     1     1     2 1   
     2     1     9 1   
     3     1    12 1   
     4     1    25 1   
     5     2     3 1   
     6     2     4 1   
     7     2    26 1   
     8     3    27 1   
     9     4     5 1   
    10     4     6 1   
    11     4    28 1   
    12     5    29 1   
    13     6     7 1   
    14     6     8 1   
    15     6    30 1   
    16     7    31 1   
    17     8     9 1   
    18     8    10 1   
    19     8    32 1   
    20    10    11 1   
    21    10    33 1   
    22    10    34 1   
    23    11    35 1   
    24    12    13 1   
    25    12    36 1   
    26    13    14 1   
    27    13    15 2   
    28    14    16 1   
    29    14    37 1   
    30    16    17 2   
    31    17    18 1   
    32    17    38 1   
    33    18    19 ar  
    34    18    23 ar  
    35    19    20 ar  
    36    19    39 1   
    37    20    21 ar  
    38    20    40 1   
    39    21    22 ar  
    40    21    24 1   
    41    22    23 ar  
    42    22    41 1   
    43    23    42 1   
    44    24    43 1   
@<TRIPOS>SUBSTRUCTURE
     1 25E         1 TEMP              0 ****  ****    0 ROOT
