@<TRIPOS>MOLECULE
25F
   27    29     1     0     0
SMALL
bcc


@<TRIPOS>ATOM
      1 C            0.0000     0.0000     0.0000 ca         1 25F       0.048100
      2 N            3.4250    -0.0010     3.6500 nc         1 25F      -0.532100
      3 O            1.4100     0.0010     7.0890 o          1 25F      -0.664500
      4 Br          -0.9430    -0.0010    -1.6390 br         1 25F      -0.119100
      5 C1           1.3850     0.0000     0.0000 ca         1 25F      -0.085000
      6 N1           1.3990     0.0010     4.8480 ns         1 25F      -0.014400
      7 C2           2.0770     0.0000     1.1920 ca         1 25F      -0.066000
      8 C3           1.3800     0.0000     2.4020 ca         1 25F      -0.150900
      9 C4          -0.0160     0.0010     2.3960 ca         1 25F      -0.066000
     10 C5          -0.6980     0.0060     1.1970 ca         1 25F      -0.085000
     11 C6           2.1160     0.0000     3.6830 cd         1 25F       0.353500
     12 C7           4.1610    -0.0020     4.7800 ca         1 25F       0.152400
     13 C8           3.5040    -0.0000     6.0310 ca         1 25F      -0.214600
     14 C9           4.2490    -0.0000     7.2080 ca         1 25F      -0.016000
     15 C10          5.6250    -0.0010     7.1370 ca         1 25F      -0.127000
     16 C11          6.2690    -0.0010     5.9070 ca         1 25F      -0.064000
     17 C12          5.5580    -0.0020     4.7410 ca         1 25F      -0.097000
     18 C13          2.0330     0.0000     6.0420 c          1 25F       0.619100
     19 H1           1.9250    -0.0000    -0.9390 ha         1 25F       0.120500
     20 HN1          0.3990     0.0020     4.8150 hn         1 25F       0.189500
     21 H2           3.1600    -0.0000     1.1900 ha         1 25F       0.121000
     22 H4          -0.5620     0.0030     3.3310 ha         1 25F       0.121000
     23 H5          -1.7810     0.0070     1.1910 ha         1 25F       0.120500
     24 H9           3.7510    -0.0000     8.1710 ha         1 25F       0.125000
     25 H10          6.2090    -0.0000     8.0500 ha         1 25F       0.108000
     26 H11          7.3520    -0.0020     5.8720 ha         1 25F       0.103000
     27 H12          6.0760    -0.0020     3.7890 ha         1 25F       0.119000
@<TRIPOS>BOND
     1     1     4 1   
     2     1     5 ar  
     3     1    10 ar  
     4     2    11 2   
     5     2    12 1   
     6     3    18 2   
     7     5     7 ar  
     8     5    19 1   
     9     6    11 1   
    10     6    18 1   
    11     6    20 1   
    12     7     8 ar  
    13     7    21 1   
    14     8     9 ar  
    15     8    11 1   
    16     9    10 ar  
    17     9    22 1   
    18    10    23 1   
    19    12    13 ar  
    20    12    17 ar  
    21    13    14 ar  
    22    13    18 1   
    23    14    15 ar  
    24    14    24 1   
    25    15    16 ar  
    26    15    25 1   
    27    16    17 ar  
    28    16    26 1   
    29    17    27 1   
@<TRIPOS>SUBSTRUCTURE
     1 25F         1 TEMP              0 ****  ****    0 ROOT
