@<TRIPOS>MOLECULE
molecule
   62    66     1     0     0
SMALL
bcc


@<TRIPOS>ATOM
      1 C10          0.0000     0.0000     0.0000 ca         1 25G      -0.099000
      2 C17         -0.5290     0.0350     6.0790 ca         1 25G       0.087600
      3 C20         -2.3770    -0.7330     7.4000 ca         1 25G      -0.095000
      4 C21         -1.7970    -0.1640     8.5350 ca         1 25G      -0.168500
      5 C22         -0.5800     0.5110     8.4290 ca         1 25G      -0.049000
      6 C24          1.1100     2.7700     6.7000 ca         1 25G      -0.085300
      7 C26          1.0030     3.7450     7.6740 ca         1 25G      -0.120500
      8 C28          0.7430     4.4220     5.0060 ca         1 25G      -0.124500
      9 C01          4.1820     3.6790     2.1680 c3         1 25G      -0.078900
     10 C02          3.6740     2.4910     1.3470 c3         1 25G      -0.076900
     11 C03          4.0800     1.1860     2.0330 c3         1 25G      -0.064700
     12 C04          5.6050     1.1180     2.1370 c3         1 25G      -0.076900
     13 C05          6.1140     2.3050     2.9580 c3         1 25G      -0.078900
     14 C06          5.7070     3.6110     2.2720 c3         1 25G      -0.080400
     15 C07          3.5720    -0.0010     1.2130 c3         1 25G      -0.124700
     16 C08          2.0660     0.0000     1.2080 ca         1 25G       0.430600
     17 C09          1.3860     0.0000     0.0000 ca         1 25G      -0.225300
     18 C11         -0.6610     0.0070     1.2190 ca         1 25G      -0.192300
     19 C12          0.0860     0.0120     2.3940 ca         1 25G       0.366800
     20 N13          1.4130     0.0120     2.3500 nb         1 25G      -0.693000
     21 C14         -0.6050     0.0250     3.7040 c          1 25G       0.579600
     22 O15         -1.8160    -0.0640     3.7520 o          1 25G      -0.592100
     23 N16          0.1090     0.1360     4.8410 ns         1 25G      -0.453100
     24 C18          0.0480     0.6090     7.2070 ca         1 25G      -0.117300
     25 C19         -1.7450    -0.6330     6.1800 ca         1 25G      -0.143000
     26 C23          1.3620     1.3360     7.0920 c3         1 25G       0.016200
     27 C25          0.7710     5.0590     7.3140 ca         1 25G      -0.124500
     28 C27          0.9800     3.1090     5.3660 ca         1 25G      -0.120500
     29 C29          0.6470     5.3990     5.9810 ca         1 25G      -0.127000
     30 C30         -2.4740    -0.2690     9.8460 cc         1 25G       0.486000
     31 N31         -3.6560    -0.8870    10.0960 na         1 25G      -0.192400
     32 N32         -2.0420     0.2120    10.9920 nd         1 25G      -0.422000
     33 N33         -2.8710    -0.0560    11.9350 nd         1 25G      -0.005000
     34 N34         -3.8740    -0.7190    11.4740 nc         1 25G      -0.216800
     35 H101        -0.5540    -0.0020    -0.9310 ha         1 25G       0.147000
     36 H201        -3.3230    -1.2560     7.4800 ha         1 25G       0.125000
     37 H221        -0.1290     0.9560     9.3080 ha         1 25G       0.162000
     38 H261         1.1000     3.4790     8.7200 ha         1 25G       0.131000
     39 H281         0.6430     4.6880     3.9610 ha         1 25G       0.131000
     40 H012         3.8960     4.6030     1.6800 hc         1 25G       0.042950
     41 H011         3.7510     3.6410     3.1610 hc         1 25G       0.042950
     42 H021         2.5940     2.5390     1.2750 hc         1 25G       0.041200
     43 H022         4.1090     2.5270     0.3550 hc         1 25G       0.041200
     44 H031         3.6510     1.1550     3.0270 hc         1 25G       0.065700
     45 H042         6.0360     1.1570     1.1440 hc         1 25G       0.041200
     46 H041         5.8920     0.1940     2.6250 hc         1 25G       0.041200
     47 H051         7.1930     2.2570     3.0300 hc         1 25G       0.042950
     48 H052         5.6790     2.2690     3.9500 hc         1 25G       0.042950
     49 H061         6.1380     3.6450     1.2790 hc         1 25G       0.041200
     50 H062         6.0660     4.4510     2.8550 hc         1 25G       0.041200
     51 H071         3.9310    -0.9240     1.6530 hc         1 25G       0.058200
     52 H072         3.9370     0.0800     0.1960 hc         1 25G       0.058200
     53 H091         1.9330    -0.0050    -0.9350 ha         1 25G       0.145000
     54 H111        -1.7440     0.0070     1.2560 ha         1 25G       0.165000
     55 H161         1.1060     0.2230     4.7990 hn         1 25G       0.350500
     56 H191        -2.1950    -1.0750     5.3000 ha         1 25G       0.181000
     57 H232         1.8760     1.3080     8.0450 hc         1 25G       0.055700
     58 H231         1.9740     0.8580     6.3370 hc         1 25G       0.055700
     59 H251         0.6920     5.8230     8.0780 ha         1 25G       0.131000
     60 H271         1.0590     2.3440     4.6030 ha         1 25G       0.131000
     61 H291         0.4630     6.4290     5.6990 ha         1 25G       0.130000
     62 H1          -4.2460    -1.3590     9.4400 hn         1 25G       0.338700
@<TRIPOS>BOND
     1    34    33 2   
     2    34    31 1   
     3    33    32 1   
     4    31    30 1   
     5    32    30 2   
     6    30     4 1   
     7     4     3 ar  
     8     4     5 ar  
     9     3    25 ar  
    10     5    24 ar  
    11    25     2 ar  
    12    24     2 ar  
    13    24    26 1   
    14    28     8 ar  
    15    28     6 ar  
    16     2    23 1   
    17     8    29 ar  
    18    26     6 1   
    19     6     7 ar  
    20    23    21 1   
    21    29    27 ar  
    22    22    21 2   
    23    21    19 1   
    24     7    27 ar  
    25    19    20 ar  
    26    19    18 ar  
    27    20    16 ar  
    28    13    14 1   
    29    13    12 1   
    30     9    14 1   
    31     9    10 1   
    32    18     1 ar  
    33    11    12 1   
    34    11    10 1   
    35    11    15 1   
    36    16    15 1   
    37    16    17 ar  
    38     1    17 ar  
    39     1    35 1   
    40     3    36 1   
    41     5    37 1   
    42     7    38 1   
    43     8    39 1   
    44     9    40 1   
    45     9    41 1   
    46    10    42 1   
    47    10    43 1   
    48    11    44 1   
    49    12    45 1   
    50    12    46 1   
    51    13    47 1   
    52    13    48 1   
    53    14    49 1   
    54    14    50 1   
    55    15    51 1   
    56    15    52 1   
    57    17    53 1   
    58    18    54 1   
    59    23    55 1   
    60    25    56 1   
    61    26    57 1   
    62    26    58 1   
    63    27    59 1   
    64    28    60 1   
    65    29    61 1   
    66    31    62 1   
@<TRIPOS>SUBSTRUCTURE
     1 25G         1 TEMP              0 ****  ****    0 ROOT
