@<TRIPOS>MOLECULE
25G
   62    66     1     0     0
SMALL
bcc


@<TRIPOS>ATOM
      1 C10          0.0000     0.0000     0.0000 ca         1 25G      -0.076000
      2 C17         -0.5290     0.0350     6.0790 ca         1 25G      -0.059400
      3 C20         -2.3770    -0.7330     7.4000 ca         1 25G      -0.075000
      4 C21         -1.7970    -0.1640     8.5350 ca         1 25G      -0.164500
      5 C22         -0.5800     0.5110     8.4290 ca         1 25G      -0.023000
      6 C24          1.1100     2.7700     6.7000 ca         1 25G      -0.092300
      7 C26          1.0030     3.7450     7.6740 ca         1 25G      -0.100000
      8 C28          0.7430     4.4220     5.0060 ca         1 25G      -0.094500
      9 C01          4.1820     3.6790     2.1680 c3         1 25G      -0.023900
     10 C02          3.6740     2.4910     1.3470 c3         1 25G      -0.025400
     11 C03          4.0800     1.1860     2.0330 c3         1 25G      -0.049700
     12 C04          5.6050     1.1180     2.1370 c3         1 25G      -0.025400
     13 C05          6.1140     2.3050     2.9580 c3         1 25G      -0.023900
     14 C06          5.7070     3.6110     2.2720 c3         1 25G      -0.024400
     15 C07          3.5720    -0.0010     1.2130 c3         1 25G      -0.068700
     16 C08          2.0660     0.0000     1.2080 ca         1 25G       0.374600
     17 C09          1.3860     0.0000     0.0000 ca         1 25G      -0.190300
     18 C11         -0.6610     0.0070     1.2190 ca         1 25G      -0.152300
     19 C12          0.0860     0.0120     2.3940 ca         1 25G       0.304800
     20 N13          1.4130     0.0120     2.3500 nb         1 25G      -0.569000
     21 C14         -0.6050     0.0250     3.7040 c          1 25G       0.479600
     22 O15         -1.8160    -0.0640     3.7520 o          1 25G      -0.637100
     23 N16          0.1090     0.1360     4.8410 ns         1 25G      -0.015100
     24 C18          0.0480     0.6090     7.2070 ca         1 25G      -0.122300
     25 C19         -1.7450    -0.6330     6.1800 ca         1 25G      -0.124000
     26 C23          1.3620     1.3360     7.0920 c3         1 25G       0.091200
     27 C25          0.7710     5.0590     7.3140 ca         1 25G      -0.094500
     28 C27          0.9800     3.1090     5.3660 ca         1 25G      -0.100000
     29 C29          0.6470     5.3990     5.9810 ca         1 25G      -0.101000
     30 C30         -2.4740    -0.2690     9.8460 cc         1 25G       0.317000
     31 N31         -3.6560    -0.8870    10.0960 na         1 25G       0.286600
     32 N32         -2.0420     0.2120    10.9920 nd         1 25G      -0.400000
     33 N33         -2.8710    -0.0560    11.9350 nd         1 25G       0.034000
     34 N34         -3.8740    -0.7190    11.4740 nc         1 25G      -0.402800
     35 H101        -0.5540    -0.0020    -0.9310 ha         1 25G       0.115000
     36 H201        -3.3230    -1.2560     7.4800 ha         1 25G       0.095000
     37 H221        -0.1290     0.9560     9.3080 ha         1 25G       0.132000
     38 H261         1.1000     3.4790     8.7200 ha         1 25G       0.107000
     39 H281         0.6430     4.6880     3.9610 ha         1 25G       0.103000
     40 H012         3.8960     4.6030     1.6800 hc         1 25G       0.014700
     41 H011         3.7510     3.6410     3.1610 hc         1 25G       0.014700
     42 H021         2.5940     2.5390     1.2750 hc         1 25G       0.015200
     43 H022         4.1090     2.5270     0.3550 hc         1 25G       0.015200
     44 H031         3.6510     1.1550     3.0270 hc         1 25G       0.041700
     45 H042         6.0360     1.1570     1.1440 hc         1 25G       0.015200
     46 H041         5.8920     0.1940     2.6250 hc         1 25G       0.015200
     47 H051         7.1930     2.2570     3.0300 hc         1 25G       0.014700
     48 H052         5.6790     2.2690     3.9500 hc         1 25G       0.014700
     49 H061         6.1380     3.6450     1.2790 hc         1 25G       0.013700
     50 H062         6.0660     4.4510     2.8550 hc         1 25G       0.013700
     51 H071         3.9310    -0.9240     1.6530 hc         1 25G       0.026700
     52 H072         3.9370     0.0800     0.1960 hc         1 25G       0.026700
     53 H091         1.9330    -0.0050    -0.9350 ha         1 25G       0.119000
     54 H111        -1.7440     0.0070     1.2560 ha         1 25G       0.138000
     55 H161         1.1060     0.2230     4.7990 hn         1 25G       0.198500
     56 H191        -2.1950    -1.0750     5.3000 ha         1 25G       0.164000
     57 H232         1.8760     1.3080     8.0450 hc         1 25G       0.024200
     58 H231         1.9740     0.8580     6.3370 hc         1 25G       0.024200
     59 H251         0.6920     5.8230     8.0780 ha         1 25G       0.103000
     60 H271         1.0590     2.3440     4.6030 ha         1 25G       0.107000
     61 H291         0.4630     6.4290     5.6990 ha         1 25G       0.103000
     62 H1          -4.2460    -1.3590     9.4400 hn         1 25G       0.174700
@<TRIPOS>BOND
     1     1    17 ar  
     2     1    18 ar  
     3     1    35 1   
     4     2    23 1   
     5     2    24 ar  
     6     2    25 ar  
     7     3     4 ar  
     8     3    25 ar  
     9     3    36 1   
    10     4     5 ar  
    11     4    30 1   
    12     5    24 ar  
    13     5    37 1   
    14     6     7 ar  
    15     6    26 1   
    16     6    28 ar  
    17     7    27 ar  
    18     7    38 1   
    19     8    28 ar  
    20     8    29 ar  
    21     8    39 1   
    22     9    10 1   
    23     9    14 1   
    24     9    40 1   
    25     9    41 1   
    26    10    11 1   
    27    10    42 1   
    28    10    43 1   
    29    11    12 1   
    30    11    15 1   
    31    11    44 1   
    32    12    13 1   
    33    12    45 1   
    34    12    46 1   
    35    13    14 1   
    36    13    47 1   
    37    13    48 1   
    38    14    49 1   
    39    14    50 1   
    40    15    16 1   
    41    15    51 1   
    42    15    52 1   
    43    16    17 ar  
    44    16    20 ar  
    45    17    53 1   
    46    18    19 ar  
    47    18    54 1   
    48    19    20 ar  
    49    19    21 1   
    50    21    22 2   
    51    21    23 1   
    52    23    55 1   
    53    24    26 1   
    54    25    56 1   
    55    26    57 1   
    56    26    58 1   
    57    27    29 ar  
    58    27    59 1   
    59    28    60 1   
    60    29    61 1   
    61    30    31 1   
    62    30    32 2   
    63    31    34 1   
    64    31    62 1   
    65    32    33 1   
    66    33    34 2   
@<TRIPOS>SUBSTRUCTURE
     1 25G         1 TEMP              0 ****  ****    0 ROOT
