@<TRIPOS>MOLECULE
25H
   32    33     1     0     0
SMALL
bcc


@<TRIPOS>ATOM
      1 N1        -31.4770  119.6050 -242.1740 n         1 25H     -0.330000
      2 C8        -30.7780  123.1510 -244.9990 c1        1 25H     -0.138000
      3 C6        -32.2060  120.3130 -243.1560 c2        1 25H      0.386000
      4 N7        -31.8390  122.3260 -244.7300 nh        1 25H     -0.143000
      5 C5        -31.4890  121.3820 -243.7640 c2        1 25H     -0.339000
      6 C2        -30.1230  119.9180 -241.8900 c2        1 25H      0.067000
      7 OAD       207.5190 -862.0440    0.0980 os        1 25H     -0.611000
      8 PAT       208.8760 -861.7160    0.5710 p2        1 25H      0.649000
      9 OAE       209.9900 -861.6270    0.6090 os        1 25H     -0.611000
     10 OAC       209.1200 -861.4760    0.0040 os        1 25H     -0.427000
     11 CAJ       -25.1280  121.6660 -245.3630 c3        1 25H     -0.240000
     12 CAH       -25.8340  123.0050 -245.3570 c3        1 25H     -0.019000
     13 OAN       -26.0810  123.4540 -244.0360 os        1 25H     -0.305000
     14 CAG       -27.2830  122.9280 -243.4500 c3        1 25H      0.094000
     15 N9        -29.6770  122.7440 -244.1820 nh        1 25H      0.104000
     16 C4        -30.0960  121.6570 -243.4060 c2        1 25H     -0.117000
     17 N3        -29.4300  120.9150 -242.4480 n2        1 25H     -0.152000
     18 N2        -29.4910  119.0540 -240.9110 nh        1 25H     -0.293000
     19 O6        -33.3880  119.9530 -243.3890 o         1 25H     -0.463000
     20 HN1       -31.8850  118.7910 -241.7820 hn        1 25H      0.228000
     21 H8        -32.7280  122.3660 -245.1510 hn        1 25H      0.240000
     22 HAJ       -25.7870  120.8790 -244.9250 hc        1 25H      0.068000
     23 HAJA      -24.1910  121.7160 -244.7590 hc        1 25H      0.068000
     24 HAH       -24.8690  121.3780 -246.4090 hc        1 25H      0.068000
     25 HAHA      -25.1710  123.7970 -245.8020 h1        1 25H      0.080000
     26 HAG       -26.7900  122.9470 -245.9430 h1        1 25H      0.080000
     27 HAGA      -27.2470  123.3630 -242.4100 h1        1 25H      0.057500
     28 HAI       -27.1840  121.8100 -243.3800 h1        1 25H      0.057500
     29 HAIA      -28.4120  124.2650 -244.8080 h4        1 25H      0.144000
     30 HN2       -29.6790  119.4140 -239.9940 hn        1 25H      0.156500
     31 HN2A      -28.4990  119.0400 -241.0570 hn        1 25H      0.156500
     32 CAI       -28.4740  123.3580 -244.1980 c2        1 25H     -0.516000
@<TRIPOS>BOND
     1    1    3 1   
     2    1    6 1   
     3    1   20 1   
     4    2    4 1   
     5    2   15 1   
     6    3    5 1   
     7    3   19 1   
     8    4    5 1   
     9    4   21 1   
    10    5   16 1   
    11    6   17 1   
    12    6   18 1   
    13    7    8 1   
    14    7   10 1   
    15    8    9 1   
    16    9   10 1   
    17   11   12 1   
    18   11   22 1   
    19   11   23 1   
    20   11   24 1   
    21   12   13 1   
    22   12   25 1   
    23   12   26 1   
    24   13   14 1   
    25   14   27 1   
    26   14   28 1   
    27   14   32 1   
    28   15   16 1   
    29   15   32 1   
    30   16   17 1   
    31   18   30 1   
    32   18   31 1   
    33   29   32 1   
@<TRIPOS>SUBSTRUCTURE
     1 25H         1 TEMP              0 ****  ****    0 ROOT
