@<TRIPOS>MOLECULE
25K
   37    39     1     0     0
SMALL
bcc


@<TRIPOS>ATOM
      1 C10          0.0000     0.0000     0.0000 c3         1 25K      -0.043400
      2 C9           1.5070     0.0000     0.0000 cc         1 25K       0.465600
      3 C8           2.1990     0.0000     1.2090 cc         1 25K      -0.412300
      4 N1           2.1610    -0.0060    -1.1420 nd         1 25K      -0.599000
      5 C11          3.4980    -0.0070    -1.1750 cd         1 25K       0.272500
      6 N4           4.2200    -0.0020    -0.0150 na         1 25K       0.444200
      7 N3           5.5700    -0.0030    -0.3880 nd         1 25K      -0.805100
      8 C12          5.6080    -0.0110    -1.6980 cc         1 25K       0.643200
      9 N2           4.3700    -0.0130    -2.1780 nc         1 25K      -0.409300
     10 C7           3.5810    -0.0010     1.1900 cd         1 25K       0.035300
     11 N            4.2980     0.0060     2.3660 nh         1 25K      -0.327000
     12 C6           5.7630     0.0120     2.3300 c3         1 25K       0.181100
     13 C5           3.5970     0.0070     3.6530 c3         1 25K       0.229100
     14 C4           3.3620    -1.4140     4.0980 ca         1 25K      -0.144300
     15 C3           4.3050    -2.0590     4.8740 ca         1 25K      -0.082000
     16 C2           4.0910    -3.3630     5.2820 ca         1 25K      -0.100000
     17 C13          2.2000    -2.0690     3.7330 ca         1 25K      -0.082000
     18 C14          1.9830    -3.3710     4.1470 ca         1 25K      -0.100000
     19 C1           2.9320    -4.0200     4.9130 ca         1 25K      -0.076300
     20 C            2.6950    -5.4380     5.3640 c3         1 25K       0.061200
     21 H1          -0.3610     0.7790     0.6600 hc         1 25K       0.018367
     22 H2          -0.3610    -0.9610     0.3450 hc         1 25K       0.018367
     23 H3          -0.3610     0.1820    -1.0050 hc         1 25K       0.018367
     24 H4           1.6700     0.1910     2.1350 ha         1 25K       0.152000
     25 H5           6.5100    -0.0150    -2.2970 h5         1 25K       0.028800
     26 H6           6.1490     0.0720     3.3400 h1         1 25K       0.026700
     27 H7           6.1070     0.8670     1.7610 h1         1 25K       0.026700
     28 H8           6.1160    -0.8990     1.8620 h1         1 25K       0.026700
     29 H9           4.1990     0.5220     4.3910 h1         1 25K       0.034200
     30 H10          2.6460     0.5140     3.5450 h1         1 25K       0.034200
     31 H11          5.2130    -1.5440     5.1640 ha         1 25K       0.109000
     32 H12          4.8330    -3.8700     5.8870 ha         1 25K       0.109000
     33 H13          1.4560    -1.5600     3.1330 ha         1 25K       0.109000
     34 H14          1.0740    -3.8850     3.8600 ha         1 25K       0.109000
     35 H15          2.1770    -5.4330     6.3150 hc         1 25K       0.009700
     36 H16          3.6460    -5.9460     5.4730 hc         1 25K       0.009700
     37 H17          2.0920    -5.9550     4.6270 hc         1 25K       0.009700
@<TRIPOS>BOND
     1     1     2 1   
     2     1    21 1   
     3     1    22 1   
     4     1    23 1   
     5     2     3 1   
     6     2     4 2   
     7     3    10 2   
     8     3    24 1   
     9     4     5 1   
    10     5     6 1   
    11     5     9 2   
    12     6     7 1   
    13     6    10 1   
    14     7     8 2   
    15     8     9 1   
    16     8    25 1   
    17    10    11 1   
    18    11    12 1   
    19    11    13 1   
    20    12    26 1   
    21    12    27 1   
    22    12    28 1   
    23    13    14 1   
    24    13    29 1   
    25    13    30 1   
    26    14    15 ar  
    27    14    17 ar  
    28    15    16 ar  
    29    15    31 1   
    30    16    19 ar  
    31    16    32 1   
    32    17    18 ar  
    33    17    33 1   
    34    18    19 ar  
    35    18    34 1   
    36    19    20 1   
    37    20    35 1   
    38    20    36 1   
    39    20    37 1   
@<TRIPOS>SUBSTRUCTURE
     1 25K         1 TEMP              0 ****  ****    0 ROOT
