@<TRIPOS>MOLECULE
molecule
   37    39     1     0     0
SMALL
bcc


@<TRIPOS>ATOM
      1 C10          0.0000     0.0000     0.0000 c3         1 25K      -0.144400
      2 C9           1.5070     0.0000     0.0000 cc         1 25K       0.530600
      3 C8           2.1990     0.0000     1.2090 cc         1 25K      -0.438300
      4 N1           2.1610    -0.0060    -1.1420 nd         1 25K      -0.724000
      5 C11          3.4980    -0.0070    -1.1750 cd         1 25K       0.494500
      6 N4           4.2200    -0.0020    -0.0150 na         1 25K      -0.024800
      7 N3           5.5700    -0.0030    -0.3880 nd         1 25K      -0.642100
      8 C12          5.6080    -0.0110    -1.6980 cc         1 25K       0.593200
      9 N2           4.3700    -0.0130    -2.1780 nc         1 25K      -0.456300
     10 C7           3.5810    -0.0010     1.1900 cd         1 25K       0.340300
     11 N            4.2980     0.0060     2.3660 nh         1 25K      -0.699000
     12 C6           5.7630     0.0120     2.3300 c3         1 25K       0.222100
     13 C5           3.5970     0.0070     3.6530 c3         1 25K       0.285100
     14 C4           3.3620    -1.4140     4.0980 ca         1 25K      -0.131300
     15 C3           4.3050    -2.0590     4.8740 ca         1 25K      -0.106000
     16 C2           4.0910    -3.3630     5.2820 ca         1 25K      -0.128000
     17 C13          2.2000    -2.0690     3.7330 ca         1 25K      -0.106000
     18 C14          1.9830    -3.3710     4.1470 ca         1 25K      -0.128000
     19 C1           2.9320    -4.0200     4.9130 ca         1 25K      -0.070300
     20 C            2.6950    -5.4380     5.3640 c3         1 25K      -0.050800
     21 H1          -0.3610     0.7790     0.6600 hc         1 25K       0.059700
     22 H2          -0.3610    -0.9610     0.3450 hc         1 25K       0.059700
     23 H3          -0.3610     0.1820    -1.0050 hc         1 25K       0.059700
     24 H4           1.6700     0.1910     2.1350 ha         1 25K       0.158000
     25 H5           6.5100    -0.0150    -2.2970 h5         1 25K       0.088800
     26 H6           6.1490     0.0720     3.3400 h1         1 25K       0.053367
     27 H7           6.1070     0.8670     1.7610 h1         1 25K       0.053367
     28 H8           6.1160    -0.8990     1.8620 h1         1 25K       0.053367
     29 H9           4.1990     0.5220     4.3910 h1         1 25K       0.063200
     30 H10          2.6460     0.5140     3.5450 h1         1 25K       0.063200
     31 H11          5.2130    -1.5440     5.1640 ha         1 25K       0.131500
     32 H12          4.8330    -3.8700     5.8870 ha         1 25K       0.134000
     33 H13          1.4560    -1.5600     3.1330 ha         1 25K       0.131500
     34 H14          1.0740    -3.8850     3.8600 ha         1 25K       0.134000
     35 H15          2.1770    -5.4330     6.3150 hc         1 25K       0.045700
     36 H16          3.6460    -5.9460     5.4730 hc         1 25K       0.045700
     37 H17          2.0920    -5.9550     4.6270 hc         1 25K       0.045700
@<TRIPOS>BOND
     1    20    19 1
     2    18    19 ar
     3    18    17 ar
     4    19    16 ar
     5    17    14 ar
     6    16    15 ar
     7    14    15 ar
     8    14    13 1
     9     8     7 2
    10     8     9 1
    11     7     6 1
    12    13    11 1
    13     9     5 2
    14     6     5 1
    15     6    10 1
    16     5     4 1
    17    11    10 1
    18    11    12 1
    19    10     3 2
    20     4     2 2
    21     3     2 1
    22     2     1 1
    23     1    21 1
    24     1    22 1
    25     1    23 1
    26     3    24 1
    27     8    25 1
    28    12    26 1
    29    12    27 1
    30    12    28 1
    31    13    29 1
    32    13    30 1
    33    15    31 1
    34    16    32 1
    35    17    33 1
    36    18    34 1
    37    20    35 1
    38    20    36 1
    39    20    37 1
@<TRIPOS>SUBSTRUCTURE
     1 25K         1 TEMP              0 ****  ****    0 ROOT
