@<TRIPOS>MOLECULE
25O
   28    30     1     0     0
SMALL
bcc


@<TRIPOS>ATOM
      1 C4           0.0000     0.0000     0.0000 ca         1 25O      -0.062000
      2 C5           1.3960     0.0000     0.0000 ca         1 25O      -0.063000
      3 C6           2.0820     0.0000     1.1960 ca         1 25O      -0.103000
      4 C11         -2.6370     2.9370    -1.8120 cc         1 25O       0.668200
      5 C7           1.3900    -0.0000     2.3950 ca         1 25O      -0.083000
      6 C8           0.0060    -0.0000     2.4010 ca         1 25O      -0.103000
      7 C9          -0.6930     0.0050     1.2120 ca         1 25O      -0.063000
      8 C10         -2.2040     1.0570    -2.8150 cd         1 25O       0.245500
      9 N1          -2.1150     0.0070    -3.6400 nd         1 25O      -0.547000
     10 N2          -2.8710     2.2040    -2.8970 nc         1 25O      -0.439300
     11 C3          -0.7420     0.0000    -1.2780 cd         1 25O      -0.068300
     12 C1          -1.3760    -1.0380    -3.3380 cc         1 25O       0.408600
     13 C           -1.3020    -2.2020    -4.2930 c3         1 25O      -0.041400
     14 N4          -1.8200     2.2860    -1.0100 nd         1 25O      -0.847100
     15 N           -1.5220     1.0660    -1.6320 na         1 25O       0.523200
     16 C2          -0.6610    -1.0770    -2.1410 cc         1 25O      -0.264300
     17 H1           1.9390    -0.0020    -0.9370 ha         1 25O       0.109000
     18 H2           3.1650     0.0000     1.1980 ha         1 25O       0.106500
     19 H3           1.9340    -0.0020     3.3310 ha         1 25O       0.103000
     20 H4          -0.5290     0.0010     3.3430 ha         1 25O       0.106500
     21 H5          -1.7760     0.0050     1.2190 ha         1 25O       0.109000
     22 H6          -2.9470     4.6790    -0.7130 hn         1 25O       0.275300
     23 H7          -3.7970     4.6170    -2.2230 hn         1 25O       0.275300
     24 H8          -0.2960    -2.2850    -4.6840 hc         1 25O       0.019367
     25 H9          -1.5620    -3.1150    -3.7700 hc         1 25O       0.019367
     26 H10         -1.9960    -2.0440    -5.1100 hc         1 25O       0.019367
     27 H11         -0.0520    -1.9380    -1.8910 ha         1 25O       0.139000
     28 N3          -3.1770     4.1960    -1.5590 nv         1 25O      -0.444800
@<TRIPOS>BOND
     1     1     2 ar  
     2     1     7 ar  
     3     1    11 1   
     4     2     3 ar  
     5     2    17 1   
     6     3     5 ar  
     7     3    18 1   
     8     4    10 1   
     9     4    14 2   
    10     4    28 1   
    11     5     6 ar  
    12     5    19 1   
    13     6     7 ar  
    14     6    20 1   
    15     7    21 1   
    16     8     9 1   
    17     8    10 2   
    18     8    15 1   
    19     9    12 2   
    20    11    15 1   
    21    11    16 2   
    22    12    13 1   
    23    12    16 1   
    24    13    24 1   
    25    13    25 1   
    26    13    26 1   
    27    14    15 1   
    28    16    27 1   
    29    22    28 1   
    30    23    28 1   
@<TRIPOS>SUBSTRUCTURE
     1 25O         1 TEMP              0 ****  ****    0 ROOT
