@<TRIPOS>MOLECULE
molecule
   28    30     1     0     0
SMALL
bcc


@<TRIPOS>ATOM
      1 C4           0.0000     0.0000     0.0000 ca         1 25O      -0.069000
      2 C5           1.3960     0.0000     0.0000 ca         1 25O      -0.087500
      3 C6           2.0820     0.0000     1.1960 ca         1 25O      -0.132500
      4 C11         -2.6370     2.9370    -1.8120 cc         1 25O       0.817200
      5 C7           1.3900    -0.0000     2.3950 ca         1 25O      -0.109000
      6 C8           0.0060    -0.0000     2.4010 ca         1 25O      -0.132500
      7 C9          -0.6930     0.0050     1.2120 ca         1 25O      -0.087500
      8 C10         -2.2040     1.0570    -2.8150 cd         1 25O       0.479500
      9 N1          -2.1150     0.0070    -3.6400 nd         1 25O      -0.684000
     10 N2          -2.8710     2.2040    -2.8970 nc         1 25O      -0.487300
     11 C3          -0.7420     0.0000    -1.2780 cd         1 25O       0.122700
     12 C1          -1.3760    -1.0380    -3.3380 cc         1 25O       0.492600
     13 C           -1.3020    -2.2020    -4.2930 c3         1 25O      -0.145400
     14 N4          -1.8200     2.2860    -1.0100 nd         1 25O      -0.671100
     15 N           -1.5220     1.0660    -1.6320 na         1 25O       0.028200
     16 C2          -0.6610    -1.0770    -2.1410 cc         1 25O      -0.323300
     17 H1           1.9390    -0.0020    -0.9370 ha         1 25O       0.140000
     18 H2           3.1650     0.0000     1.1980 ha         1 25O       0.135500
     19 H3           1.9340    -0.0020     3.3310 ha         1 25O       0.133000
     20 H4          -0.5290     0.0010     3.3430 ha         1 25O       0.135500
     21 H5          -1.7760     0.0050     1.2190 ha         1 25O       0.140000
     22 H6          -2.9470     4.6790    -0.7130 hn         1 25O       0.452800
     23 H7          -3.7970     4.6170    -2.2230 hn         1 25O       0.452800
     24 H8          -0.2960    -2.2850    -4.6840 hc         1 25O       0.061700
     25 H9          -1.5620    -3.1150    -3.7700 hc         1 25O       0.061700
     26 H10         -1.9960    -2.0440    -5.1100 hc         1 25O       0.061700
     27 H11         -0.0520    -1.9380    -1.8910 ha         1 25O       0.165000
     28 N3          -3.1770     4.1960    -1.5590 nv         1 25O      -0.951800
@<TRIPOS>BOND
     1    28     4 1   
     2     6     7 ar  
     3     6     5 ar  
     4     7     1 ar  
     5     4    14 2   
     6     4    10 1   
     7    14    15 1   
     8     5     3 ar  
     9    10     8 2   
    10    15     8 1   
    11    15    11 1   
    12     1    11 1   
    13     1     2 ar  
    14     3     2 ar  
    15     8     9 1   
    16    11    16 2   
    17     9    12 2   
    18    16    12 1   
    19    12    13 1   
    20     2    17 1   
    21     3    18 1   
    22     5    19 1   
    23     6    20 1   
    24     7    21 1   
    25    28    22 1   
    26    28    23 1   
    27    13    24 1   
    28    13    25 1   
    29    13    26 1   
    30    16    27 1   
@<TRIPOS>SUBSTRUCTURE
     1 25O         1 TEMP              0 ****  ****    0 ROOT
