@<TRIPOS>MOLECULE
molecule
   50    52     1     0     0
SMALL
bcc


@<TRIPOS>ATOM
      1 CAD          0.0000     0.0000     0.0000 ca         1 25P      -0.176500
      2 CAC          1.3810     0.0000     0.0000 ca         1 25P      -0.088000
      3 CAB          2.0740     0.0000     1.1970 ca         1 25P      -0.011600
      4 ClAG         3.8100     0.0010     1.1950 cl         1 25P      -0.122400
      5 CAA          1.3850     0.0000     2.3980 ca         1 25P      -0.088000
      6 CAF          0.0040    -0.0010     2.4030 ca         1 25P      -0.176500
      7 CAE         -0.6920    -0.0010     1.2020 ca         1 25P       0.144100
      8 OAH         -2.0520    -0.0010     1.2050 os         1 25P      -0.242200
      9 CAI         -2.6920     0.0730     0.0080 ca         1 25P       0.037100
     10 CAN         -2.8170    -1.0590    -0.7830 ca         1 25P      -0.098500
     11 CAM         -3.4680    -0.9850    -1.9980 ca         1 25P      -0.186000
     12 CAJ         -3.2260     1.2800    -0.4190 ca         1 25P      -0.098500
     13 CAK         -3.8770     1.3550    -1.6350 ca         1 25P      -0.186000
     14 CAL         -3.9980     0.2240    -2.4280 ca         1 25P       0.156100
     15 OAO         -4.6380     0.2970    -3.6250 os         1 25P      -0.330900
     16 CAP         -5.1580     1.5730    -4.0060 c3         1 25P       0.109400
     17 CAQ         -5.8390     1.4600    -5.3710 c3         1 25P       0.164500
     18 CAR         -4.8400     0.9120    -6.4110 c3         1 25P      -0.096400
     19 CAS         -5.1870     1.7220    -7.6890 c3         1 25P      -0.099400
     20 CAT         -5.5540     3.1040    -7.0920 c3         1 25P       0.155800
     21 NAU         -6.2620     2.7940    -5.8320 n3         1 25P      -0.700600
     22 CAV         -5.9900     3.8160    -4.8110 c3         1 25P       0.131800
     23 CAW         -6.6100     5.1460    -5.2420 c3         1 25P      -0.055400
     24 CAX         -6.3260     6.2090    -4.1790 c3         1 25P      -0.211400
     25 CAY         -6.9370     7.5200    -4.6040 c          1 25P       0.921600
     26 OBA         -7.5430     7.5960    -5.6590 o          1 25P      -0.848300
     27 OAZ         -6.8240     8.5040    -3.8920 o          1 25P      -0.848300
     28 HAD         -0.5420    -0.0000    -0.9380 ha         1 25P       0.152500
     29 HAC          1.9230     0.0010    -0.9380 ha         1 25P       0.143500
     30 HAA          1.9300     0.0000     3.3350 ha         1 25P       0.143500
     31 HAF         -0.5350    -0.0010     3.3420 ha         1 25P       0.152500
     32 HAN         -2.4040    -2.0030    -0.4470 ha         1 25P       0.144500
     33 HAM         -3.5640    -1.8690    -2.6170 ha         1 25P       0.151000
     34 HAJ         -3.1310     2.1640     0.2000 ha         1 25P       0.144500
     35 HAK         -4.2920     2.2980    -1.9690 ha         1 25P       0.151000
     36 HAP         -4.3480     2.2900    -4.0650 h1         1 25P       0.051700
     37 HAPA        -5.8790     1.9040    -3.2680 h1         1 25P       0.051700
     38 HAQ         -6.6980     0.8030    -5.3070 h1         1 25P       0.071700
     39 HAR         -5.0020    -0.1460    -6.5760 hc         1 25P       0.046200
     40 HARA        -3.8210     1.1080    -6.1010 hc         1 25P       0.046200
     41 HAS         -6.0350     1.2870    -8.2040 hc         1 25P       0.046200
     42 HASA        -4.3250     1.8010    -8.3410 hc         1 25P       0.046200
     43 HAT         -4.6570     3.6760    -6.8880 h1         1 25P       0.052700
     44 HATA        -6.2080     3.6430    -7.7680 h1         1 25P       0.052700
     45 HAV         -4.9190     3.9360    -4.6970 h1         1 25P       0.022200
     46 HAVA        -6.4200     3.5060    -3.8660 h1         1 25P       0.022200
     47 HAW         -7.6800     5.0250    -5.3560 hc         1 25P       0.055200
     48 HAWA        -6.1790     5.4550    -6.1870 hc         1 25P       0.055200
     49 HAX         -5.2550     6.3290    -4.0660 hc         1 25P       0.019700
     50 HAXA        -6.7570     5.8990    -3.2350 hc         1 25P       0.019700
@<TRIPOS>BOND
     1     1     2 ar  
     2     1     7 ar  
     3     2     3 ar  
     4     3     4 1   
     5     3     5 ar  
     6     5     6 ar  
     7     6     7 ar  
     8     7     8 1   
     9     8     9 1   
    10     9    10 ar  
    11     9    12 ar  
    12    10    11 ar  
    13    11    14 ar  
    14    12    13 ar  
    15    13    14 ar  
    16    14    15 1   
    17    15    16 1   
    18    16    17 1   
    19    17    18 1   
    20    17    21 1   
    21    18    19 1   
    22    19    20 1   
    23    20    21 1   
    24    21    22 1   
    25    22    23 1   
    26    23    24 1   
    27    24    25 1   
    28    25    26 1   
    29    25    27 1   
    30     1    28 1   
    31     2    29 1   
    32     5    30 1   
    33     6    31 1   
    34    10    32 1   
    35    11    33 1   
    36    12    34 1   
    37    13    35 1   
    38    16    36 1   
    39    16    37 1   
    40    17    38 1   
    41    18    39 1   
    42    18    40 1   
    43    19    41 1   
    44    19    42 1   
    45    20    43 1   
    46    20    44 1   
    47    22    45 1   
    48    22    46 1   
    49    23    47 1   
    50    23    48 1   
    51    24    49 1   
    52    24    50 1   
@<TRIPOS>SUBSTRUCTURE
     1 25P         1 TEMP              0 ****  ****    0 ROOT
