@<TRIPOS>MOLECULE
25Q
   41    44     1     0     0
SMALL
bcc


@<TRIPOS>ATOM
      1 C1           0.0000     0.0000     0.0000 ca         1 25Q      -0.062000
      2 C2           1.3930     0.0000     0.0000 ca         1 25Q      -0.076000
      3 C3           2.0940     0.0000     1.1670 ca         1 25Q      -0.132300
      4 C4           1.4080     0.0010     2.3950 ca         1 25Q       0.264300
      5 C5          -0.0100     0.0020     2.3950 ca         1 25Q       0.282300
      6 C6          -0.6980     0.0000     1.1680 ca         1 25Q      -0.151300
      7 O23         -2.3460     1.0610     6.8590 o          1 25Q      -0.411100
      8 N24         -2.4080    -1.1600     6.8850 nz         1 25Q       0.185600
      9 C9          -0.4170     0.0050     6.1090 cc         1 25Q      -0.593000
     10 C10          0.7610     0.0050     6.8460 cd         1 25Q       0.007900
     11 N21          0.8290     0.0060     8.2160 nv         1 25Q      -0.397600
     12 N11          1.8420     0.0030     6.0150 na         1 25Q       0.436800
     13 C12          1.4400     0.0020     4.6930 ca         1 25Q       0.132500
     14 N13          2.0900     0.0020     3.5480 nb         1 25Q      -0.480000
     15 C8          -0.0250     0.0040     4.6910 ca         1 25Q       0.357800
     16 N7          -0.6860     0.0030     3.5510 nb         1 25Q      -0.543000
     17 C14          3.1760     0.0030     6.4420 ca         1 25Q      -0.198200
     18 C19          3.9920     1.0940     6.1750 ca         1 25Q      -0.102000
     19 C18          5.3080     1.0940     6.5950 ca         1 25Q      -0.036000
     20 C17          5.8150     0.0100     7.2850 ca         1 25Q      -0.170000
     21 C16          5.0040    -1.0830     7.5560 ca         1 25Q       0.170100
     22 C15          3.6830    -1.0850     7.1390 ca         1 25Q      -0.136000
     23 O30          5.5050    -2.1500     8.2330 os         1 25Q      -0.304900
     24 C35          6.8730    -2.0790     8.6360 c3         1 25Q       0.244700
     25 H1          -0.5350    -0.0000    -0.9420 ha         1 25Q       0.115000
     26 H2           1.9270    -0.0000    -0.9430 ha         1 25Q       0.117000
     27 H3           3.1770    -0.0000     1.1500 ha         1 25Q       0.127000
     28 H4          -1.7810     0.0000     1.1540 ha         1 25Q       0.121000
     29 H5          -2.6200    -1.2260     7.8610 hn         1 25Q       0.241467
     30 H6          -3.2400    -1.3170     6.3510 hn         1 25Q       0.241467
     31 H7           1.5890     0.4640     8.6780 hn         1 25Q       0.280300
     32 H8           0.0900    -0.4030     8.7530 hn         1 25Q       0.280300
     33 H9           3.5910     1.9560     5.6560 ha         1 25Q       0.122000
     34 H10          5.9430     1.9460     6.3840 ha         1 25Q       0.119000
     35 H11          6.8450     0.0160     7.6210 ha         1 25Q       0.134000
     36 H12          3.0530    -1.9450     7.3330 ha         1 25Q       0.119000
     37 H13          7.1430    -2.9870     9.1610 h1         1 25Q       0.005700
     38 H14          7.5020    -1.9690     7.7600 h1         1 25Q       0.005700
     39 H15          7.0130    -1.2280     9.2900 h1         1 25Q       0.005700
     40 C22         -1.7790     0.0060     6.6400 c          1 25Q       0.435300
     41 H243        -1.8080    -1.9170     6.6220 hn         1 25Q       0.241467
@<TRIPOS>BOND
     1     1     2 ar  
     2     1     6 ar  
     3     1    25 1   
     4     2     3 ar  
     5     2    26 1   
     6     3     4 ar  
     7     3    27 1   
     8     4     5 ar  
     9     4    14 ar  
    10     5     6 ar  
    11     5    16 ar  
    12     6    28 1   
    13     7    40 2   
    14     8    29 1   
    15     8    30 1   
    16     8    40 1   
    17     8    41 1   
    18     9    10 2   
    19     9    15 1   
    20     9    40 1   
    21    10    11 1   
    22    10    12 1   
    23    11    31 1   
    24    11    32 1   
    25    12    13 1   
    26    12    17 1   
    27    13    14 ar  
    28    13    15 ar  
    29    15    16 ar  
    30    17    18 ar  
    31    17    22 ar  
    32    18    19 ar  
    33    18    33 1   
    34    19    20 ar  
    35    19    34 1   
    36    20    21 ar  
    37    20    35 1   
    38    21    22 ar  
    39    21    23 1   
    40    22    36 1   
    41    23    24 1   
    42    24    37 1   
    43    24    38 1   
    44    24    39 1   
@<TRIPOS>SUBSTRUCTURE
     1 25Q         1 TEMP              0 ****  ****    0 ROOT
