@<TRIPOS>MOLECULE
25R
   16    16     1     0     0
SMALL
bcc


@<TRIPOS>ATOM
      1 N1         -0.0590    0.0010   -0.0470 nb        1 25R     -0.629000
      2 C2          1.2980    0.0000   -0.0420 ca        1 25R      0.293300
      3 C3          2.0180   -0.0010    1.1890 ca        1 25R      0.281900
      4 N4          1.4120   -0.0010    2.3890 nb        1 25R     -0.629000
      5 C5          0.0550   -0.0000    2.3850 ca        1 25R      0.293300
      6 C6         -0.6640    0.0010    1.1530 ca        1 25R      0.281900
      7 C7          2.0650    0.0000   -1.3190 c3        1 25R     -0.146400
      8 C8         -0.7120   -0.0010    3.6610 c3        1 25R     -0.146400
      9 H3          3.1210   -0.0020    1.1960 h4        1 25R      0.031100
     10 H6         -1.7680    0.0010    1.1460 h4        1 25R      0.031100
     11 H7          1.3970   -0.0000   -2.2150 hc        1 25R      0.056700
     12 H7A         2.7160   -0.9080   -1.3610 hc        1 25R      0.056700
     13 H7B         2.7160    0.9090   -1.3610 hc        1 25R      0.056700
     14 H8         -1.3650    0.9070    3.7020 hc        1 25R      0.056700
     15 H8A        -1.3610   -0.9100    3.7040 hc        1 25R      0.056700
     16 H8B        -0.0440    0.0020    4.5570 hc        1 25R      0.056700
@<TRIPOS>BOND
     1    1    2 ar  
     2    1    6 ar  
     3    2    3 ar  
     4    2    7 1   
     5    3    4 ar  
     6    3    9 1   
     7    4    5 ar  
     8    5    6 ar  
     9    5    8 1   
    10    6   10 1   
    11    7   11 1   
    12    7   12 1   
    13    7   13 1   
    14    8   14 1   
    15    8   15 1   
    16    8   16 1   
@<TRIPOS>SUBSTRUCTURE
     1 25R         1 TEMP              0 ****  ****    0 ROOT
