@<TRIPOS>MOLECULE
molecule
   16    16     1     0     0
SMALL
bcc


@<TRIPOS>ATOM
      1 N1           0.0000     0.0000     0.0000 nb         1 25R      -0.653000
      2 C2           1.3220     0.0000     0.0000 ca         1 25R       0.296300
      3 C3           2.0130     0.0000     1.1980 ca         1 25R       0.301900
      4 N4           1.3530     0.0000     2.3420 nb         1 25R      -0.653000
      5 C5           0.0320     0.0010     2.3430 ca         1 25R       0.296300
      6 C6          -0.6600    -0.0010     1.1440 ca         1 25R       0.301900
      7 C7           2.0740     0.0000    -1.3060 c3         1 25R      -0.139400
      8 C8          -0.7210     0.0000     3.6480 c3         1 25R      -0.139400
      9 H3           3.0970    -0.0000     1.1980 h4         1 25R       0.031100
     10 H6          -1.7430    -0.0010     1.1450 h4         1 25R       0.031100
     11 H7           1.3700    -0.0000    -2.1290 hc         1 25R       0.054367
     12 H7A          2.6970    -0.8840    -1.3640 hc         1 25R       0.054367
     13 H7B          2.6970     0.8850    -1.3640 hc         1 25R       0.054367
     14 H8          -1.3470     0.8830     3.7050 hc         1 25R       0.054367
     15 H8A         -0.0170     0.0030     4.4710 hc         1 25R       0.054367
     16 H8B         -1.3410    -0.8860     3.7060 hc         1 25R       0.054367
@<TRIPOS>BOND
     1     1     2 ar
     2     1     6 ar
     3     2     3 ar
     4     2     7 1
     5     3     4 ar
     6     4     5 ar
     7     5     6 ar
     8     5     8 1
     9     3     9 1
    10     6    10 1
    11     7    11 1
    12     7    12 1
    13     7    13 1
    14     8    14 1
    15     8    15 1
    16     8    16 1
@<TRIPOS>SUBSTRUCTURE
     1 25R         1 TEMP              0 ****  ****    0 ROOT
