@<TRIPOS>MOLECULE
25S
   73    78     1     0     0
SMALL
bcc


@<TRIPOS>ATOM
      1 O1           0.0000     0.0000     0.0000 o          1 25S      -0.620100
      2 C5           1.2130     0.0000     0.0000 c          1 25S       0.549100
      3 N1           1.8870     0.0070    -1.1670 ns         1 25S      -0.030100
      4 C4           1.1940    -0.0980    -2.3740 ca         1 25S      -0.059400
      5 C3           1.6600     0.5370    -3.5240 ca         1 25S      -0.242300
      6 C2           0.9460     0.4090    -4.6980 ca         1 25S       0.422200
      7 N           -0.1640    -0.3030    -4.7380 nb         1 25S      -0.598000
      8 C1          -0.6380    -0.9190    -3.6720 ca         1 25S       0.422200
      9 C            0.0190    -0.8440    -2.4620 ca         1 25S      -0.242300
     10 C6           1.9660     0.0000     1.3050 c3         1 25S      -0.055300
     11 C24          2.8450     1.2500     1.3870 c3         1 25S       0.066800
     12 C25          3.6890     1.1890     2.6340 cc         1 25S      -0.167400
     13 C28          4.9790     0.5110     2.7810 ca         1 25S      -0.091800
     14 C29          5.7870    -0.2330     1.9190 ca         1 25S      -0.047000
     15 C30          6.9680    -0.7490     2.3740 ca         1 25S      -0.122000
     16 C31          7.3710    -0.5380     3.6850 ca         1 25S      -0.080000
     17 C32          6.5890     0.1930     4.5520 ca         1 25S      -0.099000
     18 C27          5.3820     0.7270     4.1110 ca         1 25S      -0.223200
     19 N5           4.4020     1.4810     4.7150 na         1 25S       0.363600
     20 C26          3.4050     1.7530     3.8180 cd         1 25S      -0.260100
     21 N2           1.0140    -0.0010     2.4180 ns         1 25S      -0.163900
     22 C7           0.4990    -1.1650     2.8640 c          1 25S       0.608700
     23 O            0.8250    -2.2130     2.3410 o          1 25S      -0.635100
     24 C8          -0.4590    -1.1650     3.9840 ca         1 25S      -0.210600
     25 C23         -0.9950    -2.3730     4.4480 ca         1 25S       0.212900
     26 F2          -0.6360    -3.5410     3.8710 f          1 25S      -0.106900
     27 C22         -1.8910    -2.3670     5.4970 ca         1 25S      -0.184000
     28 C11         -2.2570    -1.1610     6.0890 ca         1 25S       0.069600
     29 C10         -1.7230     0.0380     5.6240 ca         1 25S      -0.196000
     30 C9          -0.8300     0.0380     4.5890 ca         1 25S      -0.027000
     31 N3          -3.1600    -1.1530     7.1460 nh         1 25S      -0.357000
     32 C21         -3.4060     0.2160     7.6180 c3         1 25S       0.133800
     33 C20         -4.4620     0.1880     8.7260 c3         1 25S       0.134300
     34 N4          -3.9940    -0.6690     9.8240 nh         1 25S      -0.362000
     35 C13         -3.7480    -2.0390     9.3520 c3         1 25S       0.134300
     36 C12         -2.6920    -2.0100     8.2450 c3         1 25S       0.133800
     37 C14         -4.9010    -0.6620    10.8880 ca         1 25S       0.037600
     38 C19         -4.6430    -1.4110    12.0280 ca         1 25S      -0.117000
     39 C18         -5.5410    -1.4040    13.0780 ca         1 25S      -0.083000
     40 C17         -6.6990    -0.6500    12.9950 ca         1 25S       0.054900
     41 F1          -7.5750    -0.6440    14.0240 f          1 25S      -0.116900
     42 C16         -6.9600     0.1010    11.8580 ca         1 25S       0.111900
     43 F           -8.0900     0.8360    11.7800 f          1 25S      -0.115900
     44 C15         -6.0600     0.0990    10.8080 ca         1 25S      -0.181000
     45 H1           2.8860     0.0540    -1.1670 hn         1 25S       0.171500
     46 H6           2.5890    -0.8840     1.3620 h1         1 25S       0.079700
     47 H3           2.5710     1.1230    -3.4980 ha         1 25S       0.133000
     48 H           -0.3750    -1.3520    -1.5900 ha         1 25S       0.133000
     49 H2           1.3010     0.8990    -5.5960 h4         1 25S      -0.019900
     50 HA          -1.5530    -1.4950    -3.7490 h4         1 25S      -0.019900
     51 H241         3.4890     1.2960     0.5170 hc         1 25S       0.022200
     52 H242         2.2170     2.1320     1.4180 hc         1 25S       0.022200
     53 HB           0.7130     0.8650     2.8200 hn         1 25S       0.178500
     54 H26          2.5180     2.3380     4.0320 h4         1 25S       0.137000
     55 H29          5.4790    -0.4010     0.8950 ha         1 25S       0.096000
     56 H30          7.5950    -1.3260     1.7050 ha         1 25S       0.104000
     57 H31          8.3100    -0.9530     4.0310 ha         1 25S       0.103000
     58 H32          6.9130     0.3510     5.5730 ha         1 25S       0.101000
     59 H5           4.4210     1.7920     5.6660 hn         1 25S       0.115700
     60 H9          -0.4180     0.9740     4.2310 ha         1 25S       0.102000
     61 H22         -2.3080    -3.2980     5.8600 ha         1 25S       0.134000
     62 H10         -2.0100     0.9730     6.0890 ha         1 25S       0.128000
     63 H211        -2.4860     0.6340     8.0080 h1         1 25S       0.029200
     64 H212        -3.7640     0.8220     6.7950 h1         1 25S       0.029200
     65 H121        -1.7650    -1.6140     8.6410 h1         1 25S       0.029200
     66 H122        -2.5320    -3.0160     7.8740 h1         1 25S       0.029200
     67 H201        -4.6220     1.1930     9.0970 h1         1 25S       0.029200
     68 H202        -5.3890    -0.2080     8.3300 h1         1 25S       0.029200
     69 H131        -4.6680    -2.4560     8.9610 h1         1 25S       0.029200
     70 H132        -3.3910    -2.6450    10.1750 h1         1 25S       0.029200
     71 H19         -3.7370    -2.0020    12.0950 ha         1 25S       0.121000
     72 H15         -6.2630     0.6850     9.9190 ha         1 25S       0.142000
     73 H18         -5.3390    -1.9880    13.9670 ha         1 25S       0.123000
@<TRIPOS>BOND
     1     1     2 2   
     2     2     3 1   
     3     2    10 1   
     4     3     4 1   
     5     3    45 1   
     6     4     5 ar  
     7     4     9 ar  
     8     5     6 ar  
     9     5    47 1   
    10     6     7 ar  
    11     6    49 1   
    12     7     8 ar  
    13     8     9 ar  
    14     8    50 1   
    15     9    48 1   
    16    10    11 1   
    17    10    21 1   
    18    10    46 1   
    19    11    12 1   
    20    11    51 1   
    21    11    52 1   
    22    12    13 1   
    23    12    20 2   
    24    13    14 ar  
    25    13    18 ar  
    26    14    15 ar  
    27    14    55 1   
    28    15    16 ar  
    29    15    56 1   
    30    16    17 ar  
    31    16    57 1   
    32    17    18 ar  
    33    17    58 1   
    34    18    19 1   
    35    19    20 1   
    36    19    59 1   
    37    20    54 1   
    38    21    22 1   
    39    21    53 1   
    40    22    23 2   
    41    22    24 1   
    42    24    25 ar  
    43    24    30 ar  
    44    25    26 1   
    45    25    27 ar  
    46    27    28 ar  
    47    27    61 1   
    48    28    29 ar  
    49    28    31 1   
    50    29    30 ar  
    51    29    62 1   
    52    30    60 1   
    53    31    32 1   
    54    31    36 1   
    55    32    33 1   
    56    32    63 1   
    57    32    64 1   
    58    33    34 1   
    59    33    67 1   
    60    33    68 1   
    61    34    35 1   
    62    34    37 1   
    63    35    36 1   
    64    35    69 1   
    65    35    70 1   
    66    36    65 1   
    67    36    66 1   
    68    37    38 ar  
    69    37    44 ar  
    70    38    39 ar  
    71    38    71 1   
    72    39    40 ar  
    73    39    73 1   
    74    40    41 1   
    75    40    42 ar  
    76    42    43 1   
    77    42    44 ar  
    78    44    72 1   
@<TRIPOS>SUBSTRUCTURE
     1 25S         1 TEMP              0 ****  ****    0 ROOT
