@<TRIPOS>MOLECULE
molecule
   14    14     1     0     0
SMALL
bcc


@<TRIPOS>ATOM
      1 S1           0.0000     0.0000     0.0000 ss         1 25T       0.037200
      2 C2           1.7370     0.0000     0.0000 cc         1 25T       0.170400
      3 N3           2.0150     0.0000     1.2900 na         1 25T      -0.117100
      4 C4           1.0540     0.0060     2.1950 cc         1 25T      -0.148300
      5 C5          -0.2320     0.0000     1.7720 cd         1 25T       0.027600
      6 N            2.6070     0.0010    -1.0780 nv         1 25T      -0.427200
      7 CM          -1.5080    -0.0000     2.5730 c3         1 25T      -0.014800
      8 HN3          2.9710     0.0020     1.5880 hn         1 25T       0.330700
      9 H4           1.2890     0.0070     3.2520 h4         1 25T       0.223000
     10 HN1          3.3070    -0.7100    -1.1570 hn         1 25T       0.331700
     11 HN2          2.5330     0.7090    -1.7810 hn         1 25T       0.331700
     12 HM1         -1.5460     0.8880     3.1920 hc         1 25T       0.084700
     13 HM2         -2.3570    -0.0080     1.9000 hc         1 25T       0.084700
     14 HM3         -1.5390    -0.8810     3.2030 hc         1 25T       0.084700
@<TRIPOS>BOND
     1     1     2 1
     2     1     5 1
     3     2     3 2
     4     2     6 1
     5     3     4 1
     6     3     8 1
     7     4     5 2
     8     4     9 1
     9     5     7 1
    10     6    10 1
    11     6    11 1
    12     7    12 1
    13     7    13 1
    14     7    14 1
@<TRIPOS>SUBSTRUCTURE
     1 25T         1 TEMP              0 ****  ****    0 ROOT
