@<TRIPOS>MOLECULE
molecule
   43    45     1     0     0
SMALL
bcc


@<TRIPOS>ATOM
      1 CAA          0.0000     0.0000     0.0000 c3         1 25U      -0.085100
      2 CAO          1.5300     0.0000     0.0000 c3         1 25U      -0.133700
      3 C4           2.0330     0.0000     1.4210 ca         1 25U       0.535600
      4 N3           2.2500     1.1410     2.0560 nb         1 25U      -0.811000
      5 C2           2.6910     1.1540     3.3050 ca         1 25U       0.964900
      6 NAD          2.9040     2.3720     3.9270 nv         1 25U      -0.987500
      7 N1           2.9330     0.0380     3.9770 nb         1 25U      -0.829000
      8 C6           2.7410    -1.1480     3.4140 ca         1 25U       0.782200
      9 NAE          2.9950    -2.3110     4.1190 nv         1 25U      -1.071500
     10 C5           2.2680    -1.2030     2.0880 ca         1 25U      -0.307600
     11 CAF          2.0400    -2.4600     1.4400 cg         1 25U      -0.072000
     12 CAG          1.8650    -3.4990     0.9220 c1         1 25U      -0.134100
     13 CBB          1.6200    -4.4550     0.1630 c3         1 25U       0.071000
     14 CAY          0.8910    -5.5940     0.9810 ca         1 25U      -0.076300
     15 CAN          1.7020    -6.6700     1.8650 ca         1 25U      -0.096000
     16 CAM         -0.5350    -5.8960     1.1060 ca         1 25U      -0.139000
     17 CAV         -0.9690    -7.0210     1.9360 ca         1 25U      -0.106000
     18 CAL         -0.1400    -7.7410     2.5480 ca         1 25U      -0.147000
     19 CAX          1.2930    -7.4760     2.4520 cp         1 25U      -0.006000
     20 CAW          2.1100    -8.4190     3.2350 cp         1 25U      -0.281600
     21 CAJ          3.1750    -8.8490     2.8530 ca         1 25U       0.452700
     22 NAO          3.9400    -9.8180     3.7380 nb         1 25U      -0.724000
     23 CAI          3.4270   -10.2010     4.9550 ca         1 25U       0.653900
     24 NAP          2.2520    -9.7260     5.3740 nb         1 25U      -0.724000
     25 CAK          1.5590    -8.9100     4.6810 ca         1 25U       0.452700
     26 H1          -0.3610     1.0200     0.0520 hc         1 25U       0.040367
     27 H2          -0.3610    -0.5550     0.8570 hc         1 25U       0.040367
     28 H3          -0.3610    -0.4650    -0.9090 hc         1 25U       0.040367
     29 H4           1.8910    -0.8840    -0.5110 hc         1 25U       0.062200
     30 H5           1.8910     0.8840    -0.5110 hc         1 25U       0.062200
     31 H6           3.2080     2.4010     4.8800 hn         1 25U       0.451300
     32 H7           2.7370     3.2240     3.4290 hn         1 25U       0.451300
     33 H8           3.8210    -2.8420     3.9260 hn         1 25U       0.444300
     34 H9           2.3540    -2.6210     4.8220 hn         1 25U       0.444300
     35 H10          0.9790    -4.1220    -0.6440 hc         1 25U       0.072200
     36 H11          2.5470    -4.8390    -0.2460 hc         1 25U       0.072200
     37 H12          2.7780    -6.6790     1.7370 ha         1 25U       0.111000
     38 H13         -1.2640    -5.3290     0.5390 ha         1 25U       0.134000
     39 H14         -2.0270    -7.2000     2.0840 ha         1 25U       0.130000
     40 H15         -0.4940    -8.5980     3.1070 ha         1 25U       0.125000
     41 H16          3.6230    -8.4740     1.9410 h4         1 25U       0.034600
     42 H17          3.9370   -10.9950     5.4870 h5         1 25U       0.067100
     43 H18          0.5460    -8.6420     4.9590 h4         1 25U       0.034600
@<TRIPOS>BOND
     1     6     5 1
     2     5     4 ar
     3     5     7 ar
     4     4     3 ar
     5     1     2 1
     6     7     8 ar
     7     3     2 1
     8     3    10 ar
     9     8    10 ar
    10     8     9 1
    11    10    11 1
    12    11    12 3
    13    12    13 1
    14    13    14 1
    15    22    21 ar
    16    22    23 ar
    17    15    14 ar
    18    15    19 ar
    19    21    20 ar
    20    23    24 ar
    21    14    16 ar
    22    20    19 1
    23    20    25 ar
    24    24    25 ar
    25    19    18 ar
    26    16    17 ar
    27    18    17 ar
    28     1    26 1
    29     1    27 1
    30     1    28 1
    31     2    29 1
    32     2    30 1
    33     6    31 1
    34     6    32 1
    35     9    33 1
    36     9    34 1
    37    13    35 1
    38    13    36 1
    39    15    37 1
    40    16    38 1
    41    17    39 1
    42    18    40 1
    43    21    41 1
    44    23    42 1
    45    25    43 1
@<TRIPOS>SUBSTRUCTURE
     1 25U         1 TEMP              0 ****  ****    0 ROOT
