@<TRIPOS>MOLECULE
molecule
   38    40     1     0     0
SMALL
bcc


@<TRIPOS>ATOM
      1 O1           0.0000     0.0000     0.0000 o          1 25V      -0.587100
      2 C1           1.2120     0.0000     0.0000 c          1 25V       0.656100
      3 C            1.9670     0.0000     1.3050 c3         1 25V      -0.171100
      4 N            1.8860    -0.0060    -1.1680 ns         1 25V      -0.483100
      5 C2           1.1910    -0.1230    -2.3760 ca         1 25V       0.060600
      6 C17          1.6610     0.5190    -3.5140 ca         1 25V      -0.155000
      7 C16          0.9780     0.4060    -4.7110 ca         1 25V      -0.111000
      8 C15         -0.1770    -0.3460    -4.7820 ca         1 25V      -0.134000
      9 C4          -0.6580    -0.9950    -3.6440 cp         1 25V      -0.033000
     10 C3           0.0340    -0.8860    -2.4390 ca         1 25V      -0.111000
     11 C5          -1.8980    -1.8020    -3.7180 cp         1 25V       0.001000
     12 C14         -3.0790    -1.2790    -4.3010 ca         1 25V      -0.044000
     13 C13         -3.1180     0.0190    -4.8300 ca         1 25V      -0.120000
     14 C12         -4.2720     0.4860    -5.3820 ca         1 25V      -0.114000
     15 C11         -5.4150    -0.3100    -5.4300 ca         1 25V      -0.124000
     16 C10         -5.4100    -1.5740    -4.9270 ca         1 25V      -0.083000
     17 C9          -4.2380    -2.0900    -4.3480 ca         1 25V      -0.016300
     18 N1          -4.2050    -3.3310    -3.8460 na         1 25V       0.402300
     19 O           -5.3750    -4.1270    -3.9020 o          1 25V      -0.665700
     20 C7          -3.1200    -3.8280    -3.3030 ca         1 25V      -0.042600
     21 C8          -3.1510    -5.2320    -2.7570 c3         1 25V      -0.034800
     22 C6          -1.9390    -3.0990    -3.2230 ca         1 25V      -0.140000
     23 H1           1.2730    -0.1470     2.1230 hc         1 25V       0.065033
     24 H2           2.6950    -0.8020     1.3010 hc         1 25V       0.065033
     25 H3           2.4750     0.9490     1.4280 hc         1 25V       0.065033
     26 H4           2.8840     0.0620    -1.1700 hn         1 25V       0.325500
     27 H5           2.5670     1.1110    -3.4640 ha         1 25V       0.132000
     28 H6           1.3500     0.9090    -5.5950 ha         1 25V       0.136000
     29 H7          -0.7110    -0.4310    -5.7210 ha         1 25V       0.141000
     30 H8          -0.3360    -1.3870    -1.5530 ha         1 25V       0.167000
     31 H9          -2.2360     0.6460    -4.7980 ha         1 25V       0.152000
     32 H10         -4.3020     1.4890    -5.7900 ha         1 25V       0.135000
     33 H11         -6.3210     0.0840    -5.8750 ha         1 25V       0.140000
     34 H12         -6.3070    -2.1800    -4.9710 ha         1 25V       0.179000
     35 H14         -3.8460    -5.2810    -1.9270 hc         1 25V       0.062367
     36 H15         -3.4700    -5.9160    -3.5350 hc         1 25V       0.062367
     37 H16         -2.1610    -5.5100    -2.4160 hc         1 25V       0.062367
     38 H17         -1.0580    -3.5370    -2.7690 ha         1 25V       0.159000
@<TRIPOS>BOND
     1    15    14 ar
     2    15    16 ar
     3    14    13 ar
     4    16    17 ar
     5    13    12 ar
     6    17    12 ar
     7    17    18 2
     8    12    11 ar
     9     8     7 ar
    10     8     9 ar
    11     7     6 ar
    12    19    18 2
    13    18    20 1
    14    11     9 1
    15    11    22 ar
    16     9    10 ar
    17     6     5 ar
    18    20    22 ar
    19    20    21 1
    20    10     5 ar
    21     5     4 1
    22     4     2 1
    23     1     2 2
    24     2     3 1
    25     3    23 1
    26     3    24 1
    27     3    25 1
    28     4    26 1
    29     6    27 1
    30     7    28 1
    31     8    29 1
    32    10    30 1
    33    13    31 1
    34    14    32 1
    35    15    33 1
    36    16    34 1
    37    21    35 1
    38    21    36 1
    39    21    37 1
    40    22    38 1
@<TRIPOS>SUBSTRUCTURE
     1 25V         1 TEMP              0 ****  ****    0 ROOT
