@<TRIPOS>MOLECULE
25W
   25    25     1     0     0
SMALL
bcc


@<TRIPOS>ATOM
      1 O1          0.0140   -0.2780   -0.1390 oh        1 25W     -0.590800
      2 O2          1.7000   -1.3160   -2.1800 oh        1 25W     -0.599800
      3 O3          4.1720   -2.3410   -1.3500 oh        1 25W     -0.635800
      4 C5          3.5590   -1.2140   -0.7540 c3        1 25W      0.131100
      5 C           4.0020   -1.2050    0.7300 c3        1 25W      0.119500
      6 N           5.5020   -1.2620    0.8210 n4        1 25W     -0.835600
      7 C4          2.0250   -1.3000   -0.8040 c3        1 25W      0.123100
      8 C3          1.4130   -0.0810   -0.0990 c3        1 25W      0.110100
      9 C2          1.9000   -0.0080    1.3610 c3        1 25W      0.116100
     10 O           1.3830    1.2080    1.8670 oh        1 25W     -0.580800
     11 C1          3.4300    0.0200    1.4350 c3        1 25W     -0.146400
     12 H1         -0.3940    0.5100    0.2480 ho        1 25W      0.443000
     13 H2          0.7340   -1.2580   -2.2450 ho        1 25W      0.456000
     14 H3          3.6860   -2.5460   -2.1660 ho        1 25W      0.476000
     15 H4          3.9040   -0.2800   -1.2830 h1        1 25W      0.080700
     16 H5          3.6230   -2.1520    1.2230 hx        1 25W      0.122700
     17 H6          5.9100   -0.3980    0.4530 hn        1 25W      0.466467
     18 H7          5.8310   -2.0540    0.2490 hn        1 25W      0.466467
     19 H9          1.6640   -2.2510   -0.3200 h1        1 25W      0.075700
     20 H10         1.6870    0.8680   -0.6400 h1        1 25W      0.078700
     21 H11         1.4980   -0.8870    1.9380 h1        1 25W      0.067700
     22 H12         1.3610    1.1410    2.8310 ho        1 25W      0.426000
     23 H13         3.7940    0.9670    0.9550 hc        1 25W      0.081200
     24 H14         3.7390    0.0380    2.5130 hc        1 25W      0.081200
     25 HN3         5.7930   -1.3870    1.7920 hn        1 25W      0.466467
@<TRIPOS>BOND
     1    1    8 1   
     2    1   12 1   
     3    2    7 1   
     4    2   13 1   
     5    3    4 1   
     6    3   14 1   
     7    4    5 1   
     8    4    7 1   
     9    4   15 1   
    10    5    6 1   
    11    5   11 1   
    12    5   16 1   
    13    6   17 1   
    14    6   18 1   
    15    6   25 1   
    16    7    8 1   
    17    7   19 1   
    18    8    9 1   
    19    8   20 1   
    20    9   10 1   
    21    9   11 1   
    22    9   21 1   
    23   10   22 1   
    24   11   23 1   
    25   11   24 1   
@<TRIPOS>SUBSTRUCTURE
     1 25W         1 TEMP              0 ****  ****    0 ROOT
