@<TRIPOS>MOLECULE
25Z
   37    39     1     0     0
SMALL
bcc


@<TRIPOS>ATOM
      1 C1           0.0000     0.0000     0.0000 ca         1 25Z      -0.029000
      2 F1           1.2250    -0.0010    -2.3680 f          1 25Z      -0.207300
      3 N1           1.2570    -1.0550     7.0200 nc         1 25Z      -0.695000
      4 O1           3.2410     0.4610     3.7420 o          1 25Z      -0.585100
      5 S1          -0.0250    -1.3870     4.9130 ss         1 25Z      -0.304300
      6 C2           1.3830     0.0000     0.0000 ca         1 25Z      -0.224300
      7 F2           2.9400    -1.1430    -1.3790 f          1 25Z      -0.207300
      8 N2          -0.7660    -2.2310     7.4080 nu         1 25Z      -0.231300
      9 C3           2.0760     0.0000     1.1930 ca         1 25Z       0.017000
     10 F3           2.9400     1.1410    -1.3810 f          1 25Z      -0.207300
     11 N3           3.2310     0.1280     6.4370 nv         1 25Z      -0.560500
     12 C4           1.3780     0.0010     2.4010 ca         1 25Z      -0.171600
     13 C5          -0.0180     0.0020     2.3940 ca         1 25Z      -0.062000
     14 C6          -0.6990     0.0010     1.1940 ca         1 25Z      -0.114000
     15 C7           2.1360    -0.0010    -1.3060 c3         1 25Z       0.641200
     16 C8           2.1140     0.0000     3.6860 c          1 25Z       0.702300
     17 C9           1.5130    -0.5320     4.8410 cd         1 25Z      -0.316000
     18 C10          0.1470    -1.5890     6.6010 cd         1 25Z       0.571300
     19 C11          2.0240    -0.4780     6.1250 cc         1 25Z       0.594200
     20 C12         -0.4930    -2.4080     8.7670 ca         1 25Z      -0.027400
     21 C13         -1.5310    -2.4150     9.6910 ca         1 25Z      -0.115500
     22 C14         -1.2580    -2.5900    11.0330 ca         1 25Z      -0.080000
     23 C15          0.0470    -2.7610    11.4590 ca         1 25Z      -0.110000
     24 C16          1.0830    -2.7570    10.5410 ca         1 25Z      -0.080000
     25 C17          0.8160    -2.5860     9.1970 ca         1 25Z      -0.115500
     26 H1          -0.5390    -0.0000    -0.9400 ha         1 25Z       0.120000
     27 HN2         -1.6420    -2.5320     7.0310 hn         1 25Z       0.288800
     28 H3           3.1590    -0.0000     1.1920 ha         1 25Z       0.131000
     29 HN3          4.0860    -0.2450     6.0750 hn         1 25Z       0.283800
     30 HN3A         3.2500     0.9220     7.0460 hn         1 25Z       0.283800
     31 H5          -0.5660     0.0030     3.3290 ha         1 25Z       0.138000
     32 H6          -1.7820     0.0010     1.1870 ha         1 25Z       0.112000
     33 H13         -2.5530    -2.2810     9.3590 ha         1 25Z       0.122500
     34 H14         -2.0670    -2.5950    11.7530 ha         1 25Z       0.104500
     35 H15          0.2580    -2.8970    12.5120 ha         1 25Z       0.104000
     36 H16          2.1040    -2.8930    10.8770 ha         1 25Z       0.104500
     37 H17          1.6270    -2.5830     8.4800 ha         1 25Z       0.122500
@<TRIPOS>BOND
     1     1     6 ar  
     2     1    14 ar  
     3     1    26 1   
     4     2    15 1   
     5     3    18 2   
     6     3    19 1   
     7     4    16 2   
     8     5    17 1   
     9     5    18 1   
    10     6     9 ar  
    11     6    15 1   
    12     7    15 1   
    13     8    18 1   
    14     8    20 1   
    15     8    27 1   
    16     9    12 ar  
    17     9    28 1   
    18    10    15 1   
    19    11    19 1   
    20    11    29 1   
    21    11    30 1   
    22    12    13 ar  
    23    12    16 1   
    24    13    14 ar  
    25    13    31 1   
    26    14    32 1   
    27    16    17 1   
    28    17    19 2   
    29    20    21 ar  
    30    20    25 ar  
    31    21    22 ar  
    32    21    33 1   
    33    22    23 ar  
    34    22    34 1   
    35    23    24 ar  
    36    23    35 1   
    37    24    25 ar  
    38    24    36 1   
    39    25    37 1   
@<TRIPOS>SUBSTRUCTURE
     1 25Z         1 TEMP              0 ****  ****    0 ROOT
