@<TRIPOS>MOLECULE
260
   15    15     1     0     0
SMALL
bcc


@<TRIPOS>ATOM
      1 BRAC        0.0170    0.0020   -0.1020 br        1 260     -0.157400
      2 CAG         1.9470   -0.0000    0.0050 c3        1 260      0.036300
      3 CAJ         2.4450   -0.0000    1.3940 ca        1 260     -0.161300
      4 CAH         2.6960   -1.2110    2.0790 ca        1 260      0.165900
      5 FAA         2.4870   -2.3940    1.4550 f         1 260     -0.128900
      6 CAE         3.1710   -1.2100    3.4030 ca        1 260     -0.180000
      7 CAD         3.4010   -0.0000    4.0510 ca        1 260     -0.074000
      8 CAF         3.1740    1.2090    3.4020 ca        1 260     -0.180000
      9 CAI         2.7000    1.2100    2.0770 ca        1 260      0.165900
     10 FAB         2.4940    2.3930    1.4530 f         1 260     -0.128900
     11 HAG1        2.2890    0.9120   -0.5420 h1        1 260      0.092700
     12 HAG2        2.2860   -0.9140   -0.5410 h1        1 260      0.092700
     13 HAE         3.3530   -2.1670    3.9110 ha        1 260      0.156000
     14 HAD         3.7690   -0.0000    5.0890 ha        1 260      0.147000
     15 HAF         3.3600    2.1670    3.9090 ha        1 260      0.156000
@<TRIPOS>BOND
     1    1    2 1   
     2    2    3 1   
     3    2   11 1   
     4    2   12 1   
     5    3    4 ar  
     6    3    9 ar  
     7    4    5 1   
     8    4    6 ar  
     9    6    7 ar  
    10    6   13 1   
    11    7    8 ar  
    12    7   14 1   
    13    8    9 ar  
    14    8   15 1   
    15    9   10 1   
@<TRIPOS>SUBSTRUCTURE
     1 260         1 TEMP              0 ****  ****    0 ROOT
