@<TRIPOS>MOLECULE
molecule
   15    15     1     0     0
SMALL
bcc


@<TRIPOS>ATOM
      1 BrAC         0.0000     0.0000     0.0000 br         1 260      -0.161400
      2 CAG          1.9660     0.0000     0.0000 c3         1 260       0.054300
      3 CAJ          2.4680     0.0000     1.4210 ca         1 260      -0.176300
      4 CAH          2.6980    -1.1990     2.0740 ca         1 260       0.173900
      5 FAA          2.4740    -2.3690     1.4380 f          1 260      -0.127900
      6 CAE          3.1600    -1.1980     3.3790 ca         1 260      -0.181000
      7 CAD          3.3900    -0.0000     4.0310 ca         1 260      -0.073000
      8 CAF          3.1600     1.1970     3.3800 ca         1 260      -0.181000
      9 CAI          2.7030     1.1980     2.0720 ca         1 260       0.173900
     10 FAB          2.4840     2.3680     1.4350 f          1 260      -0.127900
     11 HAG1         2.3270    -0.8850    -0.5110 h1         1 260       0.087700
     12 HAG2         2.3270     0.8850    -0.5110 h1         1 260       0.087700
     13 HAE          3.3400    -2.1360     3.8910 ha         1 260       0.153000
     14 HAD          3.7490    -0.0000     5.0520 ha         1 260       0.146000
     15 HAF          3.3430     2.1340     3.8910 ha         1 260       0.153000
@<TRIPOS>BOND
     1     1     2 1   
     2     2     3 1   
     3     3     4 ar  
     4     3     9 ar  
     5     4     5 1   
     6     4     6 ar  
     7     6     7 ar  
     8     7     8 ar  
     9     8     9 ar  
    10     9    10 1   
    11     2    11 1   
    12     2    12 1   
    13     6    13 1   
    14     7    14 1   
    15     8    15 1   
@<TRIPOS>SUBSTRUCTURE
     1 260         1 TEMP              0 ****  ****    0 ROOT
