@<TRIPOS>MOLECULE
molecule
   20    20     1     0     0
SMALL
bcc


@<TRIPOS>ATOM
      1 CAA          0.0000     0.0000     0.0000 c3         1 261      -0.092100
      2 CAG          1.5300     0.0000     0.0000 c3         1 261       0.133400
      3 OAH          2.0050     0.0000     1.3470 os         1 261      -0.315900
      4 CAJ          3.3540    -0.0000     1.5260 ca         1 261       0.129100
      5 CAF          4.2000     0.0000     0.4280 ca         1 261      -0.210000
      6 CAD          5.5690    -0.0000     0.6110 ca         1 261      -0.101000
      7 CAC          6.1000    -0.0000     1.8870 ca         1 261      -0.153000
      8 CAE          5.2610     0.0010     2.9870 ca         1 261      -0.133000
      9 CAI          3.8880     0.0070     2.8110 ca         1 261       0.078100
     10 OAB          3.0620     0.0130     3.8920 oh         1 261      -0.504100
     11 HAA1        -0.3610     0.8850     0.5110 hc         1 261       0.048367
     12 HAA2        -0.3610    -0.0000    -1.0210 hc         1 261       0.048367
     13 HAA3        -0.3610    -0.8840     0.5110 hc         1 261       0.048367
     14 HAG1         1.8910    -0.8850    -0.5110 h1         1 261       0.033200
     15 HAG2         1.8910     0.8850    -0.5110 h1         1 261       0.033200
     16 HAF          3.7870     0.0000    -0.5740 ha         1 261       0.138000
     17 HAD          6.2290    -0.0000    -0.2480 ha         1 261       0.131000
     18 HAC          7.1740    -0.0030     2.0260 ha         1 261       0.133000
     19 HAE          5.6790     0.0030     3.9870 ha         1 261       0.141000
     20 HAB          3.1020     0.8550     4.3140 ho         1 261       0.414000
@<TRIPOS>BOND
     1     1     2 1   
     2     2     3 1   
     3     3     4 1   
     4     4     5 ar  
     5     4     9 ar  
     6     5     6 ar  
     7     6     7 ar  
     8     7     8 ar  
     9     8     9 ar  
    10     9    10 1   
    11     1    11 1   
    12     1    12 1   
    13     1    13 1   
    14     2    14 1   
    15     2    15 1   
    16     5    16 1   
    17     6    17 1   
    18     7    18 1   
    19     8    19 1   
    20    10    20 1   
@<TRIPOS>SUBSTRUCTURE
     1 261         1 TEMP              0 ****  ****    0 ROOT
