@<TRIPOS>MOLECULE
261
   20    20     1     0     0
SMALL
bcc


@<TRIPOS>ATOM
      1 CAA         0.0160    0.0400    0.2070 c3        1 261     -0.102100
      2 CAG         1.5160    0.0740    0.0280 c3        1 261      0.135400
      3 OAH         2.0660    0.3400    1.3260 os        1 261     -0.353900
      4 CAJ         3.4360    0.1750    1.4350 ca        1 261      0.042100
      5 CAF         4.3280    0.1600    0.3610 ca        1 261     -0.158000
      6 CAD         5.6950    0.0250    0.6070 ca        1 261     -0.137000
      7 CAC         6.1720   -0.0920    1.9100 ca        1 261     -0.125000
      8 CAE         5.2930   -0.0770    2.9920 ca        1 261     -0.138000
      9 CAI         3.9190    0.0540    2.7590 ca        1 261      0.110100
     10 OAB         3.0910    0.0700    3.8570 oh        1 261     -0.497100
     11 HAA1       -0.3490    1.0030    0.6360 hc        1 261      0.049367
     12 HAA2       -0.2780   -0.7870    0.8970 hc        1 261      0.049367
     13 HAA3       -0.4660   -0.1240   -0.7860 hc        1 261      0.049367
     14 HAG1        1.8220    0.8990   -0.6680 h1        1 261      0.040200
     15 HAG2        1.9050   -0.9050   -0.3570 h1        1 261      0.040200
     16 HAF         3.9630    0.2560   -0.6710 ha        1 261      0.137000
     17 HAD         6.3980    0.0120   -0.2390 ha        1 261      0.134000
     18 HAC         7.2520   -0.1970    2.0930 ha        1 261      0.135000
     19 HAE         5.6560   -0.1680    4.0250 ha        1 261      0.152000
     20 HAB         2.1760    0.1300    3.5420 ho        1 261      0.436000
@<TRIPOS>BOND
     1    1    2 1   
     2    1   11 1   
     3    1   12 1   
     4    1   13 1   
     5    2    3 1   
     6    2   14 1   
     7    2   15 1   
     8    3    4 1   
     9    4    5 ar  
    10    4    9 ar  
    11    5    6 ar  
    12    5   16 1   
    13    6    7 ar  
    14    6   17 1   
    15    7    8 ar  
    16    7   18 1   
    17    8    9 ar  
    18    8   19 1   
    19    9   10 1   
    20   10   20 1   
@<TRIPOS>SUBSTRUCTURE
     1 261         1 TEMP              0 ****  ****    0 ROOT
