@<TRIPOS>MOLECULE
molecule
   18    18     1     0     0
SMALL
bcc


@<TRIPOS>ATOM
      1 C1           0.0000     0.0000     0.0000 ca         1 262      -0.072000
      2 C2           1.3760     0.0000     0.0000 ca         1 262      -0.223000
      3 C3           2.0770     0.0000     1.1960 ca         1 262      -0.112000
      4 C4           1.4030     0.0000     2.4010 ca         1 262      -0.146000
      5 C5           0.0170     0.0000     2.4230 ca         1 262       0.258100
      6 C6          -0.6960    -0.0050     1.2130 ca         1 262      -0.236600
      7 C7          -2.1640    -0.0060     1.2230 c          1 262       0.637500
      8 O8          -0.6450    -0.0010     3.6050 os         1 262      -0.425500
      9 P9          -0.5490     1.4940     4.1930 p5         1 262       1.097900
     10 O10         -1.2430     1.5460     5.6460 o          1 262      -0.876167
     11 O11         -1.3080     2.5100     3.2000 o          1 262      -0.876167
     12 O14          0.8710     1.8890     4.3100 o          1 262      -0.876167
     13 O12         -2.7770    -0.0010     0.1760 o          1 262      -0.635100
     14 H1          -0.5430    -0.0020    -0.9370 ha         1 262       0.113000
     15 H2           1.9150     0.0020    -0.9400 ha         1 262       0.084000
     16 H3           3.1600     0.0000     1.1850 ha         1 262       0.092000
     17 H4           1.9590     0.0020     3.3310 ha         1 262       0.169000
     18 H7          -2.6990    -0.0530     2.1640 h4         1 262       0.028200
@<TRIPOS>BOND
     1     1     2 ar
     2     1     6 ar
     3     1    14 1
     4     2     3 ar
     5     2    15 1
     6     3     4 ar
     7     3    16 1
     8     4     5 ar
     9     4    17 1
    10     5     6 ar
    11     5     8 1
    12     6     7 1
    13     7    13 2
    14     7    18 1
    15     8     9 1
    16     9    10 1
    17     9    11 1
    18     9    12 1
@<TRIPOS>SUBSTRUCTURE
     1 262         1 TEMP              0 ****  ****    0 ROOT
