@<TRIPOS>MOLECULE
262
   18    17     1     0     0
SMALL
bcc


@<TRIPOS>ATOM
      1 C1          0.0600   -0.4350   -0.2200 ca        1 262     -0.003000
      2 C2          1.4350   -0.4740   -0.1630 ca        1 262     -0.329000
      3 C3          2.0850   -0.0350    1.0200 ca        1 262     -0.084000
      4 C4          1.3770    0.4190    2.0900 ca        1 262     -0.266000
      5 C5         -0.0800    0.4770    2.0710 ca        1 262      0.330000
      6 C6         -0.7200    0.0250    0.8550 ca        1 262     -0.403000
      7 C7         -2.1550    0.0540    0.7670 c2        1 262      0.249000
      8 O8         -0.7270    0.9020    3.0740 o         1 262     -0.515000
      9 P9         -0.5700    1.7590    5.2600 p3        1 262      2.481000
     10 O10        -1.3360    0.6970    5.9480 o         1 262     -1.167667
     11 O11        -1.2290    3.0610    5.0140 o         1 262     -1.167667
     12 O14         0.9090    1.7000    5.2790 o         1 262     -1.167667
     13 O12        -2.8290   -0.3070   -0.2230 o         1 262     -0.461000
     14 H1         -0.4680   -0.7700   -1.1270 ha        1 262      0.093000
     15 H2          2.0310   -0.8350   -1.0080 ha        1 262      0.078000
     16 H3          3.1850   -0.0710    1.0550 ha        1 262      0.074000
     17 H4          1.8620    0.7640    3.0180 ha        1 262      0.163000
     18 H7         -2.6740    0.4370    1.6780 h4        1 262      0.095000
@<TRIPOS>BOND
     1    1    2 1   
     2    1    6 1   
     3    1   14 1   
     4    2    3 1   
     5    2   15 1   
     6    3    4 1   
     7    3   16 1   
     8    4    5 1   
     9    4   17 1   
    10    5    6 1   
    11    5    8 1   
    12    6    7 1   
    13    7   13 1   
    14    7   18 1   
    15    9   10 1   
    16    9   11 1   
    17    9   12 1   
@<TRIPOS>SUBSTRUCTURE
     1 262         1 TEMP              0 ****  ****    0 ROOT
