@<TRIPOS>MOLECULE
263
   20    20     1     0     0
SMALL
bcc


@<TRIPOS>ATOM
      1 C4          0.1440    0.1010   -0.0250 ca        1 263     -0.113000
      2 C14         1.5080   -0.2060   -0.0400 ca        1 263     -0.122300
      3 C5          2.1780   -0.4500    1.1630 ca        1 263     -0.124000
      4 C6          1.4850   -0.3850    2.3710 ca        1 263     -0.127000
      5 C11         0.1260   -0.0750    2.3850 ca        1 263     -0.123000
      6 C7         -0.5540    0.1690    1.1860 ca        1 263     -0.076300
      7 C8         -2.0020    0.4820    1.1970 c3        1 263     -0.055800
      8 C13         2.2400   -0.3000   -1.3440 c3        1 263      0.206100
      9 N1          2.2680    0.8940   -2.1680 n2        1 263     -0.446200
     10 N2          2.6660    1.9960   -1.7210 n1        1 263      0.221000
     11 N3          2.9740    3.0690   -1.5120 n1        1 263     -0.057000
     12 H4         -0.3830    0.2900   -0.9730 ha        1 263      0.142000
     13 H5          3.2500   -0.6960    1.1580 ha        1 263      0.132000
     14 H6          2.0130   -0.5770    3.3160 ha        1 263      0.134000
     15 H11        -0.4160   -0.0220    3.3410 ha        1 263      0.134000
     16 H81        -2.2880    1.0160    2.1360 hc        1 263      0.046367
     17 H82        -2.2800    1.1250    0.3260 hc        1 263      0.046367
     18 H83        -2.5960   -0.4650    1.1360 hc        1 263      0.046367
     19 H131        3.2860   -0.6850   -1.1580 h1        1 263      0.068700
     20 H132        1.7140   -1.0420   -2.0150 h1        1 263      0.068700
@<TRIPOS>BOND
     1    1    2 ar  
     2    1    6 ar  
     3    1   12 1   
     4    2    3 ar  
     5    2    8 1   
     6    3    4 ar  
     7    3   13 1   
     8    4    5 ar  
     9    4   14 1   
    10    5    6 ar  
    11    5   15 1   
    12    6    7 1   
    13    7   16 1   
    14    7   17 1   
    15    7   18 1   
    16    8    9 1   
    17    8   19 1   
    18    8   20 1   
    19    9   10 1   
    20   10   11 3   
@<TRIPOS>SUBSTRUCTURE
     1 263         1 TEMP              0 ****  ****    0 ROOT
