@<TRIPOS>MOLECULE
264
   18    18     1     0     0
SMALL
bcc


@<TRIPOS>ATOM
      1 CAF          0.0000     0.0000     0.0000 ca         1 264      -0.150500
      2 CAD          1.3800     0.0000     0.0000 ca         1 264      -0.065500
      3 CAC          2.0740     0.0000     1.1960 ca         1 264      -0.131000
      4 CAE          1.3880     0.0000     2.3970 ca         1 264      -0.065500
      5 CAG          0.0070     0.0000     2.4040 ca         1 264      -0.150500
      6 CAJ         -0.6930     0.0000     1.2040 ca         1 264       0.033600
      7 NAI         -2.0890     0.0000     1.2090 nu         1 264      -0.410600
      8 CAH         -2.8180    -0.0000     2.4790 c3         1 264       0.265900
      9 CAB         -4.2660     0.0000     2.2150 c1         1 264       0.182700
     10 NAA         -5.3860     0.0160     2.0220 n1         1 264      -0.364800
     11 HAF         -0.5420     0.0000    -0.9380 ha         1 264       0.111500
     12 HAD          1.9220    -0.0000    -0.9380 ha         1 264       0.102500
     13 HAC          3.1570    -0.0000     1.1940 ha         1 264       0.105000
     14 HAE          1.9340     0.0000     3.3330 ha         1 264       0.102500
     15 HAG         -0.5300     0.0000     3.3450 ha         1 264       0.111500
     16 HAI         -2.5920     0.6960     0.6940 hn         1 264       0.268800
     17 HAH1        -2.5140     0.8560     3.0700 h1         1 264       0.028200
     18 HAH2        -2.5960    -0.9100     3.0230 h1         1 264       0.028200
@<TRIPOS>BOND
     1     1     2 ar  
     2     1     6 ar  
     3     1    11 1   
     4     2     3 ar  
     5     2    12 1   
     6     3     4 ar  
     7     3    13 1   
     8     4     5 ar  
     9     4    14 1   
    10     5     6 ar  
    11     5    15 1   
    12     6     7 1   
    13     7     8 1   
    14     7    16 1   
    15     8     9 1   
    16     8    17 1   
    17     8    18 1   
    18     9    10 3   
@<TRIPOS>SUBSTRUCTURE
     1 264         1 TEMP              0 ****  ****    0 ROOT
