@<TRIPOS>MOLECULE
molecule
   11    11     1     0     0
SMALL
bcc


@<TRIPOS>ATOM
      1 CAE          0.0000     0.0000     0.0000 cc         1 265      -0.077000
      2 CAC          1.3840     0.0000     0.0000 cc         1 265      -0.171000
      3 CAD          1.9450     0.0000     1.2090 cd         1 265      -0.050100
      4 SAF          0.6920     0.0010     2.4430 ss         1 265      -0.028800
      5 CAG         -0.5630     0.0010     1.2100 cd         1 265      -0.134300
      6 NAH         -2.0190     0.0030     1.4730 no         1 265       0.328200
      7 OAB         -2.8060     0.0030     0.5450 o          1 265      -0.196000
      8 OAA         -2.4300     0.0040     2.6200 o          1 265      -0.196000
      9 HAE         -0.5820    -0.0000    -0.9130 ha         1 265       0.178000
     10 HAC          1.9660    -0.0010    -0.9130 ha         1 265       0.164000
     11 HAD          3.0110    -0.0000     1.4030 h4         1 265       0.184000
@<TRIPOS>BOND
     1     1     2 1
     2     1     5 2
     3     2     3 2
     4     3     4 1
     5     4     5 1
     6     5     6 1
     7     6     7 1
     8     6     8 1
     9     1     9 1
    10     2    10 1
    11     3    11 1
@<TRIPOS>SUBSTRUCTURE
     1 265         1 TEMP              0 ****  ****    0 ROOT
