@<TRIPOS>MOLECULE
265
   11    11     1     0     0
SMALL
bcc


@<TRIPOS>ATOM
      1 CAE          0.0000     0.0000     0.0000 cc         1 265       0.003000
      2 CAC          1.3840     0.0000     0.0000 cc         1 265      -0.159000
      3 CAD          1.9450     0.0000     1.2090 cd         1 265       0.060900
      4 SAF          0.6920     0.0010     2.4430 ss         1 265      -0.164800
      5 CAG         -0.5630     0.0010     1.2100 cd         1 265      -0.368300
      6 NAH         -2.0190     0.0030     1.4730 no         1 265       1.091200
      7 OAB         -2.8060     0.0030     0.5450 o          1 265      -0.445000
      8 OAA         -2.4300     0.0040     2.6200 o          1 265      -0.445000
      9 HAE         -0.5820    -0.0000    -0.9130 ha         1 265       0.141000
     10 HAC          1.9660    -0.0010    -0.9130 ha         1 265       0.132000
     11 HAD          3.0110    -0.0000     1.4030 h4         1 265       0.154000
@<TRIPOS>BOND
     1     1     2 1   
     2     1     5 2   
     3     1     9 1   
     4     2     3 2   
     5     2    10 1   
     6     3     4 1   
     7     3    11 1   
     8     4     5 1   
     9     5     6 1   
    10     6     7 1   
    11     6     8 1   
@<TRIPOS>SUBSTRUCTURE
     1 265         1 TEMP              0 ****  ****    0 ROOT
