@<TRIPOS>MOLECULE
molecule
   19    18     1     0     0
SMALL
bcc


@<TRIPOS>ATOM
      1 CAA          0.0000     0.0000     0.0000 c3         1 266      -0.091100
      2 CAC          1.5300     0.0000     0.0000 c3         1 266      -0.070400
      3 CAE          2.0390     0.0000     1.4430 c3         1 266       0.024700
      4 SAG          3.8540    -0.0000     1.4430 ss         1 266      -0.365200
      5 CAF          4.2620    -0.0010     3.2110 c3         1 266       0.015700
      6 CAD          5.7820    -0.0020     3.3840 c3         1 266       0.155400
      7 OAB          6.1030    -0.0030     4.7760 oh         1 266      -0.612800
      8 HAA1        -0.3610     0.8840     0.5110 hc         1 266       0.036367
      9 HAA2        -0.3610     0.0000    -1.0210 hc         1 266       0.036367
     10 HAA3        -0.3610    -0.8850     0.5110 hc         1 266       0.036367
     11 HAC1         1.8910    -0.8850    -0.5110 hc         1 266       0.054700
     12 HAC2         1.8910     0.8850    -0.5110 hc         1 266       0.054700
     13 HAE1         1.6780    -0.8840     1.9540 h1         1 266       0.057700
     14 HAE2         1.6780     0.8850     1.9540 h1         1 266       0.057700
     15 HAF1         3.8460     0.8840     3.6780 h1         1 266       0.068700
     16 HAF2         3.8450    -0.8850     3.6770 h1         1 266       0.068700
     17 HAD1         6.1980    -0.8870     2.9160 h1         1 266       0.032700
     18 HAD2         6.1990     0.8830     2.9170 h1         1 266       0.032700
     19 HAB          7.0400    -0.0030     4.8830 ho         1 266       0.407000
@<TRIPOS>BOND
     1     1     2 1   
     2     2     3 1   
     3     3     4 1   
     4     4     5 1   
     5     5     6 1   
     6     6     7 1   
     7     1     8 1   
     8     1     9 1   
     9     1    10 1   
    10     2    11 1   
    11     2    12 1   
    12     3    13 1   
    13     3    14 1   
    14     5    15 1   
    15     5    16 1   
    16     6    17 1   
    17     6    18 1   
    18     7    19 1   
@<TRIPOS>SUBSTRUCTURE
     1 266         1 TEMP              0 ****  ****    0 ROOT
