@<TRIPOS>MOLECULE
267
   20    20     1     0     0
SMALL
bcc


@<TRIPOS>ATOM
      1 C4          0.1790    0.2170   -0.0180 ca        1 267     -0.113000
      2 C14         1.5430   -0.0900   -0.0400 ca        1 267     -0.122300
      3 C5          2.2010   -0.4080    1.1520 ca        1 267     -0.124000
      4 C6          1.4970   -0.4170    2.3550 ca        1 267     -0.127000
      5 C11         0.1390   -0.1080    2.3750 ca        1 267     -0.123000
      6 C7         -0.5300    0.2110    1.1870 ca        1 267     -0.076300
      7 C8         -1.9780    0.5230    1.2040 c3        1 267     -0.055800
      8 C13         2.2880   -0.1030   -1.3400 c3        1 267      0.206100
      9 N1          2.3230    1.1400   -2.0880 n2        1 267     -0.446200
     10 N2          2.7170    2.2120   -1.5700 n1        1 267      0.221000
     11 N3          3.0230    3.2690   -1.2920 n1        1 267     -0.057000
     12 H4         -0.3390    0.4650   -0.9580 ha        1 267      0.142000
     13 H5          3.2740   -0.6540    1.1430 ha        1 267      0.132000
     14 H6          2.0170   -0.6680    3.2920 ha        1 267      0.134000
     15 H11        -0.4130   -0.1130    3.3270 ha        1 267      0.134000
     16 H81        -2.2740    0.9980    2.1720 hc        1 267      0.046367
     17 H82        -2.5720   -0.4170    1.0790 hc        1 267      0.046367
     18 H83        -2.2480    1.2190    0.3720 hc        1 267      0.046367
     19 H131        1.7680   -0.8010   -2.0600 h1        1 267      0.068700
     20 H132        3.3320   -0.5000   -1.1690 h1        1 267      0.068700
@<TRIPOS>BOND
     1    1    2 ar  
     2    1    6 ar  
     3    1   12 1   
     4    2    3 ar  
     5    2    8 1   
     6    3    4 ar  
     7    3   13 1   
     8    4    5 ar  
     9    4   14 1   
    10    5    6 ar  
    11    5   15 1   
    12    6    7 1   
    13    7   16 1   
    14    7   17 1   
    15    7   18 1   
    16    8    9 1   
    17    8   19 1   
    18    8   20 1   
    19    9   10 1   
    20   10   11 3   
@<TRIPOS>SUBSTRUCTURE
     1 267         1 TEMP              0 ****  ****    0 ROOT
