@<TRIPOS>MOLECULE
molecule
   20    20     1     0     0
SMALL
bcc


@<TRIPOS>ATOM
      1 CAE          0.0000     0.0000     0.0000 ca         1 268      -0.191000
      2 CAC          1.3820     0.0000     0.0000 ca         1 268      -0.091500
      3 CAB          2.0750     0.0000     1.1970 ca         1 268      -0.169000
      4 CAD          1.3860     0.0000     2.3960 ca         1 268      -0.091500
      5 CAF          0.0050     0.0010     2.4010 ca         1 268      -0.191000
      6 CAJ         -0.6920     0.0000     1.2020 ca         1 268       0.144100
      7 OAI         -2.0510     0.0010     1.2040 os         1 268      -0.318900
      8 CAH         -2.6980     0.0020     2.4790 c3         1 268       0.142400
      9 CAG         -4.2140     0.0020     2.2810 c3         1 268       0.142400
     10 OAA         -4.6140    -1.2190     1.6550 oh         1 268      -0.598800
     11 HAE         -0.5420    -0.0000    -0.9380 ha         1 268       0.137500
     12 HAC          1.9230    -0.0000    -0.9380 ha         1 268       0.130000
     13 HAB          3.1580    -0.0000     1.1950 ha         1 268       0.129000
     14 HAD          1.9310     0.0010     3.3330 ha         1 268       0.130000
     15 HAF         -0.5340     0.0010     3.3410 ha         1 268       0.137500
     16 HAH1        -2.4060     0.8870     3.0310 h1         1 268       0.044200
     17 HAH2        -2.4060    -0.8820     3.0330 h1         1 268       0.044200
     18 HAG1        -4.7040     0.0910     3.2430 h1         1 268       0.032200
     19 HAG2        -4.4970     0.8380     1.6530 h1         1 268       0.032200
     20 HAA         -5.5550    -1.2620     1.6220 ho         1 268       0.402000
@<TRIPOS>BOND
     1     1     2 ar  
     2     1     6 ar  
     3     2     3 ar  
     4     3     4 ar  
     5     4     5 ar  
     6     5     6 ar  
     7     6     7 1   
     8     7     8 1   
     9     8     9 1   
    10     9    10 1   
    11     1    11 1   
    12     2    12 1   
    13     3    13 1   
    14     4    14 1   
    15     5    15 1   
    16     8    16 1   
    17     8    17 1   
    18     9    18 1   
    19     9    19 1   
    20    10    20 1   
@<TRIPOS>SUBSTRUCTURE
     1 268         1 TEMP              0 ****  ****    0 ROOT
