@<TRIPOS>MOLECULE
268
   20    20     1     0     0
SMALL
bcc


@<TRIPOS>ATOM
      1 CAE        -0.1900    0.0370    0.0380 ca        1 268     -0.179500
      2 CAC         1.1930   -0.0120   -0.0870 ca        1 268     -0.097000
      3 CAB         2.0060   -0.0880    1.0460 ca        1 268     -0.163000
      4 CAD         1.4310   -0.1160    2.3140 ca        1 268     -0.097000
      5 CAF         0.0440   -0.0670    2.4660 ca        1 268     -0.179500
      6 CAJ        -0.7620    0.0090    1.3250 ca        1 268      0.126100
      7 OAI        -2.1430    0.0630    1.3420 os        1 268     -0.343900
      8 CAH        -2.7570    0.0340    2.6360 c3        1 268      0.084400
      9 CAG        -4.2590    0.0920    2.3710 c3        1 268      0.130400
     10 OAA        -4.7330   -1.1060    1.7950 oh        1 268     -0.596800
     11 HAE        -0.8430    0.0980   -0.8430 ha        1 268      0.142000
     12 HAC         1.6480    0.0100   -1.0890 ha        1 268      0.133000
     13 HAB         3.0990   -0.1270    0.9360 ha        1 268      0.134000
     14 HAD         2.0700   -0.1760    3.2080 ha        1 268      0.133000
     15 HAF        -0.3940   -0.0900    3.4730 ha        1 268      0.142000
     16 HAH1       -2.4260    0.9210    3.2340 h1        1 268      0.051700
     17 HAH2       -2.4820   -0.9170    3.1620 h1        1 268      0.051700
     18 HAG1       -4.5000    0.9650    1.7080 h1        1 268      0.057200
     19 HAG2       -4.8080    0.1860    3.3460 h1        1 268      0.057200
     20 HAA        -4.2480   -1.2350    0.9700 ho        1 268      0.413000
@<TRIPOS>BOND
     1    1    2 ar  
     2    1    6 ar  
     3    1   11 1   
     4    2    3 ar  
     5    2   12 1   
     6    3    4 ar  
     7    3   13 1   
     8    4    5 ar  
     9    4   14 1   
    10    5    6 ar  
    11    5   15 1   
    12    6    7 1   
    13    7    8 1   
    14    8    9 1   
    15    8   16 1   
    16    8   17 1   
    17    9   10 1   
    18    9   18 1   
    19    9   19 1   
    20   10   20 1   
@<TRIPOS>SUBSTRUCTURE
     1 268         1 TEMP              0 ****  ****    0 ROOT
