@<TRIPOS>MOLECULE
269
   22    22     1     0     0
SMALL
bcc


@<TRIPOS>ATOM
      1 CAF        -0.0420   -0.0810    0.0040 ca        1 269     -0.117500
      2 CAD         1.3520   -0.0700   -0.0160 ca        1 269     -0.129500
      3 CAC         2.0680    0.0400    1.1770 ca        1 269     -0.123000
      4 CAE         1.3870    0.1360    2.3900 ca        1 269     -0.129500
      5 CAG        -0.0060    0.1220    2.4130 ca        1 269     -0.117500
      6 CAJ        -0.7280    0.0150    1.2200 ca        1 269     -0.133300
      7 CAK        -2.2280   -0.0060    1.2340 c3        1 269      0.188400
      8 OAA        -2.7670    0.7440    2.3180 oh        1 269     -0.601800
      9 CAI        -2.7480   -1.4370    1.3910 c3        1 269     -0.083400
     10 CAH        -4.2500   -1.4680    1.2490 c3        1 269      0.040000
     11 CLAB       -4.8760   -3.1000    1.4140 cl        1 269     -0.201400
     12 HAF        -0.6040   -0.1680   -0.9380 ha        1 269      0.139000
     13 HAD         1.8870   -0.1470   -0.9740 ha        1 269      0.134500
     14 HAC         3.1670    0.0500    1.1590 ha        1 269      0.134000
     15 HAE         1.9500    0.2200    3.3320 ha        1 269      0.134500
     16 HAG        -0.5500    0.1920    3.3690 ha        1 269      0.139000
     17 HAK        -2.6180    0.4340    0.2690 h1        1 269      0.040700
     18 HAA        -2.3340    1.6060    2.3060 ho        1 269      0.408000
     19 HAI1       -2.2630   -2.0790    0.6100 hc        1 269      0.068700
     20 HAI2       -2.4480   -1.8260    2.3990 hc        1 269      0.068700
     21 HAH1       -4.7330   -0.8500    2.0450 h1        1 269      0.071200
     22 HAH2       -4.5700   -1.1050    0.2430 h1        1 269      0.071200
@<TRIPOS>BOND
     1    1    2 ar  
     2    1    6 ar  
     3    1   12 1   
     4    2    3 ar  
     5    2   13 1   
     6    3    4 ar  
     7    3   14 1   
     8    4    5 ar  
     9    4   15 1   
    10    5    6 ar  
    11    5   16 1   
    12    6    7 1   
    13    7    8 1   
    14    7    9 1   
    15    7   17 1   
    16    8   18 1   
    17    9   10 1   
    18    9   19 1   
    19    9   20 1   
    20   10   11 1   
    21   10   21 1   
    22   10   22 1   
@<TRIPOS>SUBSTRUCTURE
     1 269         1 TEMP              0 ****  ****    0 ROOT
