@<TRIPOS>MOLECULE
molecule
   22    22     1     0     0
SMALL
bcc


@<TRIPOS>ATOM
      1 CAF          0.0000     0.0000     0.0000 ca         1 269      -0.109500
      2 CAD          1.3830     0.0000     0.0000 ca         1 269      -0.130500
      3 CAC          2.0740     0.0000     1.1970 ca         1 269      -0.122000
      4 CAE          1.3830     0.0010     2.3940 ca         1 269      -0.130500
      5 CAG          0.0010     0.0020     2.3940 ca         1 269      -0.109500
      6 CAJ         -0.6900     0.0010     1.1970 ca         1 269      -0.119300
      7 CAK         -2.1970     0.0020     1.1970 c3         1 269       0.194400
      8 OAA         -2.6740     0.8680     2.2290 oh         1 269      -0.603800
      9 CAI         -2.7080    -1.4190     1.4470 c3         1 269      -0.089400
     10 CAH         -4.2330    -1.4420     1.3240 c3         1 269       0.051000
     11 ClAB        -4.8350    -3.1160     1.6200 cl         1 269      -0.208400
     12 HAF         -0.5420    -0.0000    -0.9380 ha         1 269       0.136000
     13 HAD          1.9250    -0.0010    -0.9380 ha         1 269       0.131000
     14 HAC          3.1580    -0.0000     1.1970 ha         1 269       0.130000
     15 HAE          1.9240     0.0020     3.3320 ha         1 269       0.131000
     16 HAG         -0.5400     0.0030     3.3320 ha         1 269       0.136000
     17 HAK         -2.5580     0.3510     0.2370 h1         1 269       0.035700
     18 HAA         -2.9160     1.6990     1.8550 ho         1 269       0.406000
     19 HAI1        -2.2760    -2.0920     0.7160 hc         1 269       0.069700
     20 HAI2        -2.4210    -1.7350     2.4430 hc         1 269       0.069700
     21 HAH1        -4.6650    -0.7690     2.0550 h1         1 269       0.066700
     22 HAH2        -4.5200    -1.1260     0.3280 h1         1 269       0.066700
@<TRIPOS>BOND
     1     1     2 ar  
     2     1     6 ar  
     3     2     3 ar  
     4     3     4 ar  
     5     4     5 ar  
     6     5     6 ar  
     7     6     7 1   
     8     7     8 1   
     9     7     9 1   
    10     9    10 1   
    11    10    11 1   
    12     1    12 1   
    13     2    13 1   
    14     3    14 1   
    15     4    15 1   
    16     5    16 1   
    17     7    17 1   
    18     8    18 1   
    19     9    19 1   
    20     9    20 1   
    21    10    21 1   
    22    10    22 1   
@<TRIPOS>SUBSTRUCTURE
     1 269         1 TEMP              0 ****  ****    0 ROOT
