@<TRIPOS>MOLECULE
26A
   38    40     1     0     0
SMALL
bcc


@<TRIPOS>ATOM
      1 C10          0.0000     0.0000     0.0000 c3         1 26A       0.159600
      2 N6           1.4690     0.0000     0.0000 nh         1 26A      -0.450300
      3 C9           1.8910     0.0000     1.4080 c3         1 26A       0.159600
      4 C6           1.8670    -1.2130    -0.5350 ca         1 26A       0.578200
      5 C5           3.2300    -1.5230    -0.6780 ca         1 26A      -0.185200
      6 C4           3.5720    -2.7720    -1.2220 ca         1 26A       0.243800
      7 N3           2.6030    -3.6040    -1.5890 nb         1 26A      -0.626000
      8 C2           1.3390    -3.2680    -1.4420 ca         1 26A       0.654900
      9 N1           0.9680    -2.1080    -0.9310 nb         1 26A      -0.696000
     10 N7           4.3880    -0.8830    -0.3890 nc         1 26A      -0.487100
     11 C8           5.3950    -1.6370    -0.7220 cd         1 26A       0.263700
     12 N9           4.9430    -2.8140    -1.2400 na         1 26A       0.204000
     13 C1'          5.7710    -3.9210    -1.7280 c3         1 26A       0.150800
     14 O4'          7.0900    -3.8570    -1.1440 os         1 26A      -0.383600
     15 C4'          7.9330    -4.6330    -2.0230 c3         1 26A       0.155100
     16 C5'          9.4010    -4.2470    -1.8310 c3         1 26A       0.224400
     17 O5'          9.8280    -4.6350    -0.5230 oh         1 26A      -0.578800
     18 C2'          6.0030    -3.7880    -3.2490 c3         1 26A       0.129100
     19 O2'          5.0990    -4.6240    -3.9740 oh         1 26A      -0.540800
     20 C3'          7.4600    -4.2660    -3.4480 c3         1 26A       0.126100
     21 O3'          7.5010    -5.4130    -4.3000 oh         1 26A      -0.548800
     22 H101        -0.3610    -0.8230     0.6050 h1         1 26A       0.014867
     23 H102        -0.3610     0.9350     0.4100 h1         1 26A       0.014867
     24 H103        -0.3610    -0.1120    -1.0150 h1         1 26A       0.014867
     25 H91          1.2610     0.6750     1.9740 h1         1 26A       0.014867
     26 H92          1.8020    -1.0010     1.8110 h1         1 26A       0.014867
     27 H93          2.9220     0.3260     1.4750 h1         1 26A       0.014867
     28 H2           0.5740    -3.9690    -1.7530 h5         1 26A      -0.000900
     29 H8           6.4380    -1.3700    -0.6030 h5         1 26A       0.041800
     30 H1'          5.3070    -4.8730    -1.5020 h2         1 26A       0.070700
     31 H4'          7.7900    -5.6910    -1.8420 h1         1 26A       0.053700
     32 H5'1        10.0080    -4.7520    -2.5730 h1         1 26A      -0.006800
     33 H5'2         9.5110    -3.1750    -1.9430 h1         1 26A      -0.006800
     34 H5'         10.7700    -4.6340    -0.4860 ho         1 26A       0.392000
     35 H2'          5.9010    -2.7550    -3.5560 h1         1 26A       0.019700
     36 HO'2         4.9380    -4.2490    -4.8240 ho         1 26A       0.394000
     37 H3'          8.0670    -3.4650    -3.8510 h1         1 26A       0.013700
     38 HO'3         8.0800    -5.2450    -5.0250 ho         1 26A       0.387000
@<TRIPOS>BOND
     1     1     2 1   
     2     1    22 1   
     3     1    23 1   
     4     1    24 1   
     5     2     3 1   
     6     2     4 1   
     7     3    25 1   
     8     3    26 1   
     9     3    27 1   
    10     4     5 ar  
    11     4     9 ar  
    12     5     6 ar  
    13     5    10 1   
    14     6     7 ar  
    15     6    12 1   
    16     7     8 ar  
    17     8     9 ar  
    18     8    28 1   
    19    10    11 2   
    20    11    12 1   
    21    11    29 1   
    22    12    13 1   
    23    13    14 1   
    24    13    18 1   
    25    13    30 1   
    26    14    15 1   
    27    15    16 1   
    28    15    20 1   
    29    15    31 1   
    30    16    17 1   
    31    16    32 1   
    32    16    33 1   
    33    17    34 1   
    34    18    19 1   
    35    18    20 1   
    36    18    35 1   
    37    19    36 1   
    38    20    21 1   
    39    20    37 1   
    40    21    38 1   
@<TRIPOS>SUBSTRUCTURE
     1 26A         1 TEMP              0 ****  ****    0 ROOT
