@<TRIPOS>MOLECULE
molecule
   24    25     1     0     0
SMALL
bcc


@<TRIPOS>ATOM
      1 O17          0.0000     0.0000     0.0000 o          1 26C      -0.835300
      2 C15          1.2150     0.0000     0.0000 c          1 26C       0.879200
      3 O16          1.8880     0.0000     1.1670 o          1 26C      -0.835300
      4 C6           1.9510    -0.0000    -1.2780 ca         1 26C      -0.084600
      5 C1           1.2530    -0.0010    -2.4890 ca         1 26C      -0.106000
      6 C5           3.3500     0.0060    -1.2790 ca         1 26C      -0.106000
      7 C4           4.0360    -0.0000    -2.4710 ca         1 26C      -0.128000
      8 C3           3.3380     0.0010    -3.6800 cp         1 26C      -0.097000
      9 C2           1.9420    -0.0010    -3.6800 ca         1 26C      -0.128000
     10 C7           4.0790     0.0010    -4.9630 cp         1 26C      -0.074000
     11 C12          3.9920    -1.0960    -5.8220 ca         1 26C       0.162400
     12 F2           3.2280    -2.1590    -5.4900 f          1 26C      -0.125900
     13 C11          4.6820    -1.0870    -7.0210 ca         1 26C      -0.194000
     14 C10          5.4640     0.0010    -7.3640 ca         1 26C      -0.099000
     15 C9           5.5600     1.0880    -6.5140 ca         1 26C      -0.194000
     16 C8           4.8710     1.0940    -5.3160 ca         1 26C       0.162400
     17 F1           4.9650     2.1580    -4.4870 f          1 26C      -0.125900
     18 H1           0.1700    -0.0020    -2.4890 ha         1 26C       0.153000
     19 H5           3.8930     0.0050    -0.3410 ha         1 26C       0.153000
     20 H4           5.1190     0.0020    -2.4730 ha         1 26C       0.110500
     21 H2           1.4010    -0.0010    -4.6180 ha         1 26C       0.110500
     22 H11          4.6130    -1.9360    -7.6910 ha         1 26C       0.137000
     23 H10          6.0040     0.0020    -8.3030 ha         1 26C       0.128000
     24 H9           6.1750     1.9360    -6.7890 ha         1 26C       0.137000
@<TRIPOS>BOND
     1     1     2 1
     2     2     3 1
     3     2     4 1
     4     4     5 ar
     5     4     6 ar
     6     5     9 ar
     7     5    18 1
     8     6     7 ar
     9     6    19 1
    10     7     8 ar
    11     7    20 1
    12     8     9 ar
    13     8    10 1
    14     9    21 1
    15    10    11 ar
    16    10    16 ar
    17    11    12 1
    18    11    13 ar
    19    13    14 ar
    20    13    22 1
    21    14    15 ar
    22    14    23 1
    23    15    16 ar
    24    15    24 1
    25    16    17 1
@<TRIPOS>SUBSTRUCTURE
     1 26C         1 TEMP              0 ****  ****    0 ROOT
