@<TRIPOS>MOLECULE
26C
   24    25     1     0     0
SMALL
bcc


@<TRIPOS>ATOM
      1 O17        -0.0710   -0.1330    0.0410 o         1 26C     -0.827300
      2 C15         1.1850    0.0010    0.0820 c         1 26C      0.906200
      3 O16         1.8530    0.1340    1.1460 o         1 26C     -0.827300
      4 C6          1.9430    0.0010   -1.2390 ca        1 26C     -0.102600
      5 C1          1.2620   -0.1710   -2.4480 ca        1 26C     -0.116000
      6 C5          3.3310    0.1740   -1.2600 ca        1 26C     -0.116000
      7 C4          4.0270    0.1790   -2.4650 ca        1 26C     -0.125000
      8 C3          3.3440    0.0010   -3.6790 cp        1 26C     -0.103000
      9 C2          1.9520   -0.1760   -3.6560 ca        1 26C     -0.125000
     10 C7          4.0710    0.0020   -4.9440 cp        1 26C     -0.047000
     11 C12         3.8560   -1.0010   -5.9210 ca        1 26C      0.144900
     12 F2          2.9680   -2.0000   -5.7020 f         1 26C     -0.130900
     13 C11         4.5580   -0.9990   -7.1420 ca        1 26C     -0.192000
     14 C10         5.4840    0.0020   -7.4070 ca        1 26C     -0.104000
     15 C9          5.7230    1.0020   -6.4730 ca        1 26C     -0.192000
     16 C8          5.0230    1.0040   -5.2510 ca        1 26C      0.144900
     17 F1          5.2810    2.0030   -4.3740 f         1 26C     -0.130900
     18 H1          0.1680   -0.3040   -2.4160 ha        1 26C      0.155000
     19 H5          3.8550    0.3060   -0.2990 ha        1 26C      0.155000
     20 H4          5.1160    0.3280   -2.4740 ha        1 26C      0.113000
     21 H2          1.4110   -0.3250   -4.6020 ha        1 26C      0.113000
     22 H11         4.3630   -1.7960   -7.8730 ha        1 26C      0.140000
     23 H10         6.0320    0.0020   -8.3610 ha        1 26C      0.128000
     24 H9          6.4530    1.7990   -6.6730 ha        1 26C      0.140000
@<TRIPOS>BOND
     1    1    2 1   
     2    2    3 1   
     3    2    4 1   
     4    4    5 ar  
     5    4    6 ar  
     6    5    9 ar  
     7    5   18 1   
     8    6    7 ar  
     9    6   19 1   
    10    7    8 ar  
    11    7   20 1   
    12    8    9 ar  
    13    8   10 1   
    14    9   21 1   
    15   10   11 ar  
    16   10   16 ar  
    17   11   12 1   
    18   11   13 ar  
    19   13   14 ar  
    20   13   22 1   
    21   14   15 ar  
    22   14   23 1   
    23   15   16 ar  
    24   15   24 1   
    25   16   17 1   
@<TRIPOS>SUBSTRUCTURE
     1 26C         1 TEMP              0 ****  ****    0 ROOT
