@<TRIPOS>MOLECULE
molecule
   15    15     1     0     0
SMALL
bcc


@<TRIPOS>ATOM
      1 N1           0.0000     0.0000     0.0000 nv         1 26D      -1.084500
      2 C3           1.3900     0.0000     0.0000 ca         1 26D       0.685200
      3 N3           2.0450     0.0000     1.1510 nb         1 26D      -0.733000
      4 C5           2.0770     0.0060    -1.2070 ca         1 26D      -0.266300
      5 C6           3.4630     0.0060    -1.1980 ca         1 26D      -0.091000
      6 C4           4.1170     0.0010     0.0230 ca         1 26D      -0.266300
      7 C2           3.3690    -0.0050     1.1940 ca         1 26D       0.685200
      8 N2           4.0170    -0.0110     2.4240 nv         1 26D      -1.084500
      9 HN11        -0.5000     0.8670     0.0170 hn         1 26D       0.434050
     10 HN12        -0.5000    -0.8670     0.0120 hn         1 26D       0.434050
     11 H5           1.5360     0.0100    -2.1460 ha         1 26D       0.141000
     12 H6           4.0230     0.0110    -2.1260 ha         1 26D       0.136000
     13 H4           5.1990    -0.0010     0.0650 ha         1 26D       0.141000
     14 HN21         4.2390     0.8540     2.8760 hn         1 26D       0.434050
     15 HN22         4.2360    -0.8790     2.8700 hn         1 26D       0.434050
@<TRIPOS>BOND
     1     1     2 1
     2     1     9 1
     3     1    10 1
     4     2     3 ar
     5     2     4 ar
     6     3     7 ar
     7     4     5 ar
     8     4    11 1
     9     5     6 ar
    10     5    12 1
    11     6     7 ar
    12     6    13 1
    13     7     8 1
    14     8    14 1
    15     8    15 1
@<TRIPOS>SUBSTRUCTURE
     1 26D         1 TEMP              0 ****  ****    0 ROOT
