@<TRIPOS>MOLECULE
26F
   71    69     1     0     0
SMALL
bcc


@<TRIPOS>ATOM
      1 C1          0.7490    0.5140    0.0020 c3        1 26F     -0.200000
      2 C2          0.2090    0.5210    2.4480 c2        1 26F      0.221000
      3 C3          2.0090    1.1510    0.3060 c1        1 26F     -0.011000
      4 C4          1.5320    1.0080    2.8060 c3        1 26F     -0.250000
      5 C5         -8.0310    0.5370   -0.3430 c2        1 26F     -0.209000
      6 C6         -8.6780   -1.9000   -0.1640 c3        1 26F     -0.104000
      7 C7         -6.6530    0.1790   -0.5300 c2        1 26F      0.131000
      8 C8         -7.2470   -2.1930   -0.3700 c2        1 26F     -0.100000
      9 C9         -8.4560   -5.3180    2.4970 c2        1 26F     -0.219000
     10 C10        -0.1890    0.2400    1.1360 c2        1 26F     -0.272000
     11 C11         2.3890    1.5230    1.6590 c3        1 26F     -0.248000
     12 C12        -8.9660   -0.4370   -0.1750 c2        1 26F      0.135000
     13 C13        -6.2610   -1.1160   -0.5310 c2        1 26F     -0.858000
     14 C14        -7.1130   -5.3310    2.0220 c2        1 26F      0.131000
     15 C15        -8.6390   -5.0940    3.8740 c2        1 26F      0.041000
     16 C16        -6.3890   -4.8830    4.1730 c2        1 26F      0.042000
     17 C17        -2.4390   -2.2900    4.0680 c2        1 26F      0.418000
     18 C18        -7.3770   -4.7550   -0.3300 c3        1 26F     -0.017000
     19 C19        -6.6690   -3.4340   -0.4520 c2        1 26F     -0.026000
     20 C20        -1.4110   -2.5660    6.3320 c1        1 26F      0.309000
     21 C21        -2.3420   -2.8200    5.4360 c2        1 26F     -0.553000
     22 C22         3.8630    1.1780    1.8570 c2        1 26F      0.221000
     23 C25        -1.4260   -0.3120    0.8960 c2        1 26F      0.137000
     24 C26       -11.2280   -0.7420    0.6410 c3        1 26F      0.544000
     25 N27        -6.0570   -5.0970    2.8740 n2        1 26F     -0.209000
     26 N28        -7.6270   -4.8740    4.7480 n2        1 26F     -0.239000
     27 N29        -6.8500   -5.6600    0.6660 nh        1 26F     -0.248000
     28 N30        -5.2780   -3.3670   -0.6640 n3        1 26F     -0.807000
     29 N31        -3.3770   -2.8070    3.2250 n         1 26F     -0.409000
     30 O32        -1.6750   -1.3740    3.6540 o         1 26F     -0.513000
     31 O33        -4.1140   -1.4880   -1.9210 o         1 26F     -0.962500
     32 O34        -3.8910   -1.5300    0.3850 o         1 26F     -0.962500
     33 O35         4.2370    0.4670    2.7830 o         1 26F     -0.262000
     34 O37        -9.9990   -5.0800    4.3260 os        1 26F     -0.010000
     35 O38        -5.2500   -4.5510    5.0080 os        1 26F     -0.009000
     36 F39       -10.8010   -0.9930    1.9030 f         1 26F     -0.131000
     37 F40       -12.3210    0.0510    0.6670 f         1 26F     -0.131000
     38 F41       -11.5200   -1.9150    0.0280 f         1 26F     -0.131000
     39 S42        -4.7410   -1.8100   -0.7150 s6        1 26F      2.870000
     40 H1          0.2380    1.1530   -0.7820 hc        1 26F      0.177000
     41 H2         -0.5060    0.3470    3.2880 ha        1 26F      0.210000
     42 H3          1.0110   -0.4550   -0.5280 hc        1 26F      0.177000
     43 H4          2.3490    2.6630    1.6470 hc        1 26F      0.188000
     44 H5         -8.3140    1.6010   -0.3530 ha        1 26F      0.177000
     45 H6         -9.2950   -2.3910   -0.9740 hc        1 26F      0.133000
     46 H7         -5.9330    1.0060   -0.6650 ha        1 26F      0.149000
     47 H8         -9.0290   -2.3370    0.8170 hc        1 26F      0.133000
     48 H9         -9.3180   -5.4950    1.8390 ha        1 26F      0.187000
     49 H18        -8.4660   -4.5550   -0.1080 h1        1 26F      0.131500
     50 H18A      -11.0490   -4.5480    0.2710 ha        1 26F      0.003167
     51 H19        -7.3130   -5.2930   -1.3220 h1        1 26F      0.131500
     52 H19A      -10.5140   -4.1330    0.3060 ha        1 26F      0.003167
     53 H20        -5.8870   -5.8940    0.5010 hn        1 26F      0.204000
     54 H20A       -3.1560   -3.5180    5.7730 ha        1 26F      0.242000
     55 H21        -4.7850   -4.1990   -0.8570 hn        1 26F      0.269000
     56 H22         1.4450    1.7910    3.6160 hc        1 26F      0.187500
     57 H22A        4.5390    1.6230    1.0970 h4        1 26F      0.152000
     58 H22B        2.0700    0.1370    3.3180 hc        1 26F      0.187500
     59 H23       -11.1220   -7.3030    5.8370 ha        1 26F      0.003167
     60 H23A       -9.7410   -5.0580    6.4200 ha        1 26F      0.087000
     61 H23B      -10.4740   -7.3980    6.0160 ha        1 26F      0.003167
     62 H24        -5.9840   -5.0580    6.9230 ha        1 26F      0.109000
     63 H24A       -8.0400   -5.1080    8.1570 ha        1 26F      0.003167
     64 H24B       -8.0090   -5.6840    7.8020 ha        1 26F      0.003167
     65 H25        -2.1430   -0.5610    1.7080 ha        1 26F      0.187000
     66 H25A       -1.7600   -0.5600   -0.1280 ha        1 26F      0.187000
     67 HN31       -3.9700   -3.5460    3.5130 hn        1 26F      0.250000
     68 H312       -3.4840   -2.4280    2.3120 hn        1 26F      0.250000
     69 O36       -10.2780   -0.0040   -0.0930 os        1 26F     -0.253000
     70 C23       -10.3950   -5.0650    5.5300 c1        1 26F      0.023000
     71 C24        -5.1900   -4.6680    6.2640 c1        1 26F     -0.005000
@<TRIPOS>BOND
     1    1    3 1   
     2    1   10 1   
     3    1   40 1   
     4    1   42 1   
     5    2    4 1   
     6    2   10 1   
     7    2   41 1   
     8    3   11 1   
     9    4   11 1   
    10    4   56 1   
    11    4   58 1   
    12    5    7 1   
    13    5   12 1   
    14    5   44 1   
    15    6    8 1   
    16    6   12 1   
    17    6   45 1   
    18    6   47 1   
    19    7   13 1   
    20    7   46 1   
    21    8   13 1   
    22    8   19 1   
    23    9   14 1   
    24    9   15 1   
    25    9   48 1   
    26   10   23 1   
    27   11   22 1   
    28   11   43 1   
    29   12   69 1   
    30   13   39 1   
    31   14   25 1   
    32   14   27 1   
    33   15   26 1   
    34   15   34 1   
    35   16   25 1   
    36   16   26 1   
    37   16   35 1   
    38   17   21 1   
    39   17   29 1   
    40   17   30 1   
    41   18   19 1   
    42   18   27 1   
    43   18   49 1   
    44   18   51 1   
    45   19   28 1   
    46   20   21 1   
    47   21   54 1   
    48   22   33 1   
    49   22   57 1   
    50   23   65 1   
    51   23   66 1   
    52   24   36 1   
    53   24   37 1   
    54   24   38 1   
    55   24   69 1   
    56   27   53 1   
    57   28   39 1   
    58   28   55 1   
    59   29   67 1   
    60   29   68 1   
    61   31   39 1   
    62   32   39 1   
    63   34   70 1   
    64   35   71 1   
    65   50   52 1   
    66   59   61 1   
    67   60   70 1   
    68   62   71 1   
    69   63   64 1   
@<TRIPOS>SUBSTRUCTURE
     1 26F         1 TEMP              0 ****  ****    0 ROOT
