@<TRIPOS>MOLECULE
26G
   35    36     1     0     0
SMALL
bcc


@<TRIPOS>ATOM
      1 CM2          0.0000     0.0000     0.0000 c3         1 26G      -0.033400
      2 C02          6.6760    -4.5220     1.2310 c3         1 26G       0.227400
      3 C2           5.7460    -2.1460    -3.0710 ca         1 26G      -0.096000
      4 C5           7.0060    -3.2440    -0.8680 ca         1 26G      -0.084300
      5 C4           6.5290    -1.9470    -0.8160 ca         1 26G      -0.103000
      6 C01          5.9000    -1.3980    -1.9180 ca         1 26G      -0.088300
      7 C7A          5.3810     0.0160    -1.8630 c3         1 26G       0.116200
      8 C4A          3.6740     0.0000     0.0000 ca         1 26G       0.546200
      9 N3A          2.4040     0.0000     0.3950 nb         1 26G      -0.694000
     10 C2A          1.4260     0.0010    -0.4870 ca         1 26G       0.640300
     11 N1A          1.6600     0.0040    -1.7840 nb         1 26G      -0.678000
     12 C6A          2.8980     0.0040    -2.2550 ca         1 26G       0.490200
     13 C5A          3.9560     0.0080    -1.3670 ca         1 26G      -0.416900
     14 C28          6.8430    -3.9950    -2.0160 ca         1 26G      -0.099000
     15 C30          6.2180    -3.4450    -3.1200 ca         1 26G      -0.092000
     16 O31          7.3380    -5.0860     2.3650 oh         1 26G      -0.596800
     17 H1          -0.2390     0.9690     0.4210 hc         1 26G       0.018033
     18 H2          -0.6650    -0.2070    -0.8300 hc         1 26G       0.018033
     19 H3          -0.1210    -0.7630     0.7600 hc         1 26G       0.018033
     20 H4           4.5180    -0.2710     1.8770 hn         1 26G       0.278800
     21 H5           5.6190     0.2940     0.6630 hn         1 26G       0.278800
     22 H6           5.9690    -3.7710     1.5620 h1         1 26G      -0.012800
     23 H7           6.1490    -5.3020     0.6960 h1         1 26G      -0.012800
     24 H8           8.4340    -4.5650    -0.0040 hc         1 26G       0.026700
     25 H9           8.2040    -3.0510     0.8820 hc         1 26G       0.026700
     26 H10          5.2550    -1.7150    -3.9350 ha         1 26G       0.106000
     27 H11          6.6490    -1.3610     0.0870 ha         1 26G       0.106000
     28 H12          5.9950     0.6000    -1.1880 hc         1 26G       0.019700
     29 H13          5.4160     0.4530    -2.8530 hc         1 26G       0.019700
     30 H14          3.0780     0.0060    -3.3230 h4         1 26G      -0.018900
     31 H15          7.2120    -5.0120    -2.0540 ha         1 26G       0.108000
     32 H16          6.0940    -4.0330    -4.0210 ha         1 26G       0.104000
     33 H17          6.7150    -5.5630     2.8880 ho         1 26G       0.392000
     34 N4A          4.7010    -0.0020     0.9300 nv         1 26G      -0.537500
     35 C6           7.7040    -3.8370     0.3280 c3         1 26G       0.020900
@<TRIPOS>BOND
     1     1    10 1   
     2     1    17 1   
     3     1    18 1   
     4     1    19 1   
     5     2    16 1   
     6     2    22 1   
     7     2    23 1   
     8     2    35 1   
     9     3     6 ar  
    10     3    15 ar  
    11     3    26 1   
    12     4     5 ar  
    13     4    14 ar  
    14     4    35 1   
    15     5     6 ar  
    16     5    27 1   
    17     6     7 1   
    18     7    13 1   
    19     7    28 1   
    20     7    29 1   
    21     8     9 ar  
    22     8    13 ar  
    23     8    34 1   
    24     9    10 ar  
    25    10    11 ar  
    26    11    12 ar  
    27    12    13 ar  
    28    12    30 1   
    29    14    15 ar  
    30    14    31 1   
    31    15    32 1   
    32    16    33 1   
    33    20    34 1   
    34    21    34 1   
    35    24    35 1   
    36    25    35 1   
@<TRIPOS>SUBSTRUCTURE
     1 26G         1 TEMP              0 ****  ****    0 ROOT
