@<TRIPOS>MOLECULE
molecule
   55    58     1     0     0
SMALL
bcc


@<TRIPOS>ATOM
      1 NBE          0.0000     0.0000     0.0000 nu         1 26J      -0.633100
      2 OAE          1.4160     0.0000     0.0000 oh         1 26J      -0.334300
      3 CAX         -0.6990     0.0000     1.2100 ca         1 26J       0.247600
      4 CBB         -2.0810    -0.0000     1.2240 ca         1 26J      -0.006100
      5 SAV         -3.0680     0.0030    -0.2500 ss         1 26J      -0.251100
      6 CAY         -4.7720     0.0040     0.0840 cc         1 26J       0.768100
      7 NAR         -5.0940     0.0030     1.3730 nd         1 26J      -0.798100
      8 CAZ         -4.2750     0.0010     2.3990 c          1 26J       0.725100
      9 OAD         -4.8150     0.0000     3.4920 o          1 26J      -0.543100
     10 CBA         -2.8130     0.0000     2.4290 ca         1 26J      -0.137600
     11 CAK         -2.1000    -0.0020     3.6340 ca         1 26J      -0.058000
     12 CAW         -0.7230    -0.0040     3.6150 ca         1 26J      -0.151300
     13 CBG          0.0310    -0.0070     4.9190 c3         1 26J       0.674200
     14 FAG          0.2640    -1.3260     5.3200 f          1 26J      -0.220633
     15 FAH          1.2550     0.6520     4.7520 f          1 26J      -0.220633
     16 FAF         -0.7230     0.6520     5.8960 f          1 26J      -0.220633
     17 CAJ         -0.0170    -0.0070     2.4210 ca         1 26J      -0.112000
     18 NBF         -5.7140     0.0060    -0.9090 nh         1 26J      -0.726600
     19 CAM         -5.3180     0.0010    -2.3250 c3         1 26J       0.231300
     20 CAO         -6.0600     1.1350    -3.0420 c3         1 26J       0.143800
     21 NBH         -7.5020     1.0030    -2.7980 n3         1 26J      -0.734600
     22 CAN         -7.8180     1.1460    -1.3710 c3         1 26J       0.143800
     23 CAL         -7.1500     0.0070    -0.5870 c3         1 26J       0.231300
     24 C30         -8.2620     1.9660    -3.6060 c3         1 26J       0.164800
     25 C31         -8.3160     1.4860    -5.0570 c3         1 26J      -0.067700
     26 C32         -8.9940     2.5500    -5.9220 c3         1 26J      -0.073400
     27 C33         -9.0480     2.0700    -7.3740 c3         1 26J      -0.079400
     28 C34         -9.8470     0.7660    -7.4510 c3         1 26J      -0.080400
     29 C35         -9.1690    -0.2980    -6.5860 c3         1 26J      -0.079400
     30 C36         -9.1150     0.1820    -5.1340 c3         1 26J      -0.073400
     31 H1          -0.5000    -0.0000    -0.8670 hn         1 26J       0.462800
     32 H2           1.7300     0.0030    -0.8890 ho         1 26J       0.411000
     33 H3          -2.6290    -0.0790     4.5760 ha         1 26J       0.177000
     34 H4           1.0670    -0.0080     2.4330 ha         1 26J       0.172000
     35 H5          -4.2490     0.1590    -2.4040 h1         1 26J       0.074450
     36 H6          -5.5850    -0.9480    -2.7740 h1         1 26J       0.074450
     37 H7          -5.7160     2.0890    -2.6590 h1         1 26J       0.049450
     38 H8          -5.8670     1.0760    -4.1060 h1         1 26J       0.049450
     39 H10         -8.8920     1.0970    -1.2330 h1         1 26J       0.049450
     40 H11         -7.4450     2.0980    -1.0130 h1         1 26J       0.049450
     41 H12         -7.5880    -0.9410    -0.8760 h1         1 26J       0.074450
     42 H13         -7.2840     0.1690     0.4760 h1         1 26J       0.074450
     43 H14         -7.7780     2.9340    -3.5640 h1         1 26J       0.039200
     44 H15         -9.2700     2.0490    -3.2160 h1         1 26J       0.039200
     45 H16         -7.3110     1.3130    -5.4230 hc         1 26J       0.049700
     46 H17         -8.4260     3.4710    -5.8690 hc         1 26J       0.044950
     47 H18        -10.0010     2.7190    -5.5610 hc         1 26J       0.044950
     48 H19         -8.0410     1.8960    -7.7340 hc         1 26J       0.040700
     49 H20         -9.5300     2.8240    -7.9850 hc         1 26J       0.040700
     50 H21         -9.8820     0.4260    -8.4780 hc         1 26J       0.041200
     51 H22        -10.8520     0.9390    -7.0870 hc         1 26J       0.041200
     52 H23         -9.7360    -1.2190    -6.6390 hc         1 26J       0.040700
     53 H24         -8.1610    -0.4670    -6.9460 hc         1 26J       0.040700
     54 H25        -10.1220     0.3560    -4.7740 hc         1 26J       0.044950
     55 H26         -8.6320    -0.5710    -4.5230 hc         1 26J       0.044950
@<TRIPOS>BOND
     1     9     8 2
     2    20    19 1
     3    20    21 1
     4     8     7 1
     5     8    10 1
     6    19    18 1
     7     7     6 2
     8    16    13 1
     9    11    10 ar
    10    11    12 ar
    11    10     4 ar
    12    21    24 1
    13    21    22 1
    14    15    13 1
    15    24    25 1
    16     6    18 1
    17     6     5 1
    18    18    23 1
    19    13    12 1
    20    13    14 1
    21    30    25 1
    22    30    29 1
    23    12    17 ar
    24    22    23 1
    25    25    26 1
    26     4     5 1
    27     4     3 ar
    28    29    28 1
    29    17     3 ar
    30     3     1 1
    31    26    27 1
    32    28    27 1
    33     1     2 1
    34     1    31 1
    35     2    32 1
    36    11    33 1
    37    17    34 1
    38    19    35 1
    39    19    36 1
    40    20    37 1
    41    20    38 1
    42    22    39 1
    43    22    40 1
    44    23    41 1
    45    23    42 1
    46    24    43 1
    47    24    44 1
    48    25    45 1
    49    26    46 1
    50    26    47 1
    51    27    48 1
    52    27    49 1
    53    28    50 1
    54    28    51 1
    55    29    52 1
    56    29    53 1
    57    30    54 1
    58    30    55 1
@<TRIPOS>SUBSTRUCTURE
     1 26J         1 TEMP              0 ****  ****    0 ROOT
