@<TRIPOS>MOLECULE
26J
   55    58     1     0     0
SMALL
bcc


@<TRIPOS>ATOM
      1 NBE          0.0000     0.0000     0.0000 nu         1 26J      -0.200100
      2 OAE          1.4160     0.0000     0.0000 oh         1 26J      -0.421300
      3 CAX         -0.6990     0.0000     1.2100 ca         1 26J       0.100600
      4 CBB         -2.0810    -0.0000     1.2240 ca         1 26J       0.018900
      5 SAV         -3.0680     0.0030    -0.2500 ss         1 26J      -0.323100
      6 CAY         -4.7720     0.0040     0.0840 cc         1 26J       0.603100
      7 NAR         -5.0940     0.0030     1.3730 nd         1 26J      -0.697100
      8 CAZ         -4.2750     0.0010     2.3990 c          1 26J       0.714100
      9 OAD         -4.8150     0.0000     3.4920 o          1 26J      -0.576100
     10 CBA         -2.8130     0.0000     2.4290 ca         1 26J      -0.128600
     11 CAK         -2.1000    -0.0020     3.6340 ca         1 26J      -0.022000
     12 CAW         -0.7230    -0.0040     3.6150 ca         1 26J      -0.174300
     13 CBG          0.0310    -0.0070     4.9190 c3         1 26J       0.638200
     14 FAG          0.2640    -1.3260     5.3200 f          1 26J      -0.206300
     15 FAH          1.2550     0.6520     4.7520 f          1 26J      -0.206300
     16 FAF         -0.7230     0.6520     5.8960 f          1 26J      -0.206300
     17 CAJ         -0.0170    -0.0070     2.4210 ca         1 26J      -0.083000
     18 NBF         -5.7140     0.0060    -0.9090 nh         1 26J      -0.327600
     19 CAM         -5.3180     0.0010    -2.3250 c3         1 26J       0.149800
     20 CAO         -6.0600     1.1350    -3.0420 c3         1 26J       0.134800
     21 NBH         -7.5020     1.0030    -2.7980 n3         1 26J      -0.541600
     22 CAN         -7.8180     1.1460    -1.3710 c3         1 26J       0.134800
     23 CAL         -7.1500     0.0070    -0.5870 c3         1 26J       0.149800
     24 C30         -8.2620     1.9660    -3.6060 c3         1 26J       0.154800
     25 C31         -8.3160     1.4860    -5.0570 c3         1 26J      -0.054700
     26 C32         -8.9940     2.5500    -5.9220 c3         1 26J      -0.022400
     27 C33         -9.0480     2.0700    -7.3740 c3         1 26J      -0.023400
     28 C34         -9.8470     0.7660    -7.4510 c3         1 26J      -0.025400
     29 C35         -9.1690    -0.2980    -6.5860 c3         1 26J      -0.023400
     30 C36         -9.1150     0.1820    -5.1340 c3         1 26J      -0.022400
     31 H1          -0.5000    -0.0000    -0.8670 hn         1 26J       0.293800
     32 H2           1.7300     0.0030    -0.8890 ho         1 26J       0.406000
     33 H3          -2.6290    -0.0790     4.5760 ha         1 26J       0.147000
     34 H4           1.0670    -0.0080     2.4330 ha         1 26J       0.141000
     35 H5          -4.2490     0.1590    -2.4040 h1         1 26J       0.047700
     36 H6          -5.5850    -0.9480    -2.7740 h1         1 26J       0.047700
     37 H7          -5.7160     2.0890    -2.6590 h1         1 26J       0.023200
     38 H8          -5.8670     1.0760    -4.1060 h1         1 26J       0.023200
     39 H10         -8.8920     1.0970    -1.2330 h1         1 26J       0.023200
     40 H11         -7.4450     2.0980    -1.0130 h1         1 26J       0.023200
     41 H12         -7.5880    -0.9410    -0.8760 h1         1 26J       0.047700
     42 H13         -7.2840     0.1690     0.4760 h1         1 26J       0.047700
     43 H14         -7.7780     2.9340    -3.5640 h1         1 26J       0.015200
     44 H15         -9.2700     2.0490    -3.2160 h1         1 26J       0.015200
     45 H16         -7.3110     1.3130    -5.4230 hc         1 26J       0.031700
     46 H17         -8.4260     3.4710    -5.8690 hc         1 26J       0.018700
     47 H18        -10.0010     2.7190    -5.5610 hc         1 26J       0.018700
     48 H19         -8.0410     1.8960    -7.7340 hc         1 26J       0.012700
     49 H20         -9.5300     2.8240    -7.9850 hc         1 26J       0.012700
     50 H21         -9.8820     0.4260    -8.4780 hc         1 26J       0.013700
     51 H22        -10.8520     0.9390    -7.0870 hc         1 26J       0.013700
     52 H23         -9.7360    -1.2190    -6.6390 hc         1 26J       0.012700
     53 H24         -8.1610    -0.4670    -6.9460 hc         1 26J       0.012700
     54 H25        -10.1220     0.3560    -4.7740 hc         1 26J       0.018700
     55 H26         -8.6320    -0.5710    -4.5230 hc         1 26J       0.018700
@<TRIPOS>BOND
     1     1     2 1   
     2     1     3 1   
     3     1    31 1   
     4     2    32 1   
     5     3     4 ar  
     6     3    17 ar  
     7     4     5 1   
     8     4    10 ar  
     9     5     6 1   
    10     6     7 2   
    11     6    18 1   
    12     7     8 1   
    13     8     9 2   
    14     8    10 1   
    15    10    11 ar  
    16    11    12 ar  
    17    11    33 1   
    18    12    13 1   
    19    12    17 ar  
    20    13    14 1   
    21    13    15 1   
    22    13    16 1   
    23    17    34 1   
    24    18    19 1   
    25    18    23 1   
    26    19    20 1   
    27    19    35 1   
    28    19    36 1   
    29    20    21 1   
    30    20    37 1   
    31    20    38 1   
    32    21    22 1   
    33    21    24 1   
    34    22    23 1   
    35    22    39 1   
    36    22    40 1   
    37    23    41 1   
    38    23    42 1   
    39    24    25 1   
    40    24    43 1   
    41    24    44 1   
    42    25    26 1   
    43    25    30 1   
    44    25    45 1   
    45    26    27 1   
    46    26    46 1   
    47    26    47 1   
    48    27    28 1   
    49    27    48 1   
    50    27    49 1   
    51    28    29 1   
    52    28    50 1   
    53    28    51 1   
    54    29    30 1   
    55    29    52 1   
    56    29    53 1   
    57    30    54 1   
    58    30    55 1   
@<TRIPOS>SUBSTRUCTURE
     1 26J         1 TEMP              0 ****  ****    0 ROOT
