@<TRIPOS>MOLECULE
molecule
   37    39     1     0     0
SMALL
bcc


@<TRIPOS>ATOM
      1 N1           0.0000     0.0000     0.0000 n3         1 26K      -0.725600
      2 N3          -0.0810     2.3200    -7.0510 na         1 26K       0.014200
      3 C4          -0.1630     0.9720    -2.2420 c3         1 26K       0.236800
      4 C5          -0.4830     2.1750    -4.3730 cc         1 26K       0.727200
      5 C6          -0.9880     3.2690    -5.1070 cc         1 26K      -0.357300
      6 C7          -0.7810     3.3240    -6.4410 cd         1 26K       0.046700
      7 C8           0.3930     1.2700    -6.3090 cd         1 26K       0.455500
      8 C10          1.7280    -0.8640    -6.8480 cc         1 26K      -0.212100
      9 C13          0.9540     0.9770    -8.4710 cc         1 26K       0.432500
     10 C2           1.4700     0.0000     0.0000 c3         1 26K       0.149100
     11 C1          -0.5260     0.0000     1.3710 c3         1 26K       0.149100
     12 C3          -0.5260     1.1380    -0.7650 c3         1 26K       0.142800
     13 N2          -0.6880     2.1060    -3.0050 nu         1 26K      -0.906900
     14 N7           0.1850     1.2180    -4.9880 nd         1 26K      -0.761000
     15 C9           1.0510     0.4120    -7.1960 cc         1 26K      -0.258800
     16 C12          1.5550    -2.0640    -7.4730 cd         1 26K      -0.119300
     17 N5           2.3530    -2.9630    -6.8580 na         1 26K      -0.049600
     18 N4           3.0380    -2.3060    -5.8280 nd         1 26K      -0.523800
     19 C11          2.6680    -1.0520    -5.8170 cc         1 26K       0.356200
     20 N6           0.2860     2.1030    -8.3850 nd         1 26K      -0.587100
     21 H2          -0.5940     0.0520    -2.6180 h1         1 26K       0.065700
     22 H3           0.9150     0.9340    -2.3460 h1         1 26K       0.065700
     23 H4          -1.6570     3.9770    -4.6330 ha         1 26K       0.153000
     24 H5          -1.1620     4.1570    -7.0210 h4         1 26K       0.175000
     25 H6           1.3640     0.5550    -9.3800 h4         1 26K       0.060800
     26 H7           1.8310    -0.5010     0.8900 h1         1 26K       0.035033
     27 H8           1.8310    -0.5200    -0.8790 h1         1 26K       0.035033
     28 H9           1.8310     1.0210    -0.0110 h1         1 26K       0.035033
     29 H10         -0.1810     0.8860     1.8910 h1         1 26K       0.035033
     30 H11         -1.6090    -0.0030     1.3430 h1         1 26K       0.035033
     31 H12         -0.1760    -0.8830     1.8930 h1         1 26K       0.035033
     32 H13         -1.6040     1.1760    -0.6600 h1         1 26K       0.034700
     33 H14         -0.0940     2.0570    -0.3880 h1         1 26K       0.034700
     34 H15         -1.2080     2.8240    -2.5400 hn         1 26K       0.444800
     35 H16          0.8960    -2.2610    -8.3110 h4         1 26K       0.169000
     36 H17          2.4410    -3.9310    -7.0970 hn         1 26K       0.325700
     37 H18          3.0240    -0.2900    -5.1340 h4         1 26K       0.053100
@<TRIPOS>BOND
     1    11     1 1
     2     1    10 1
     3     1    12 1
     4     3    12 1
     5     3    13 1
     6    13     4 1
     7     4     5 1
     8     4    14 2
     9     5     6 2
    10    14     7 1
    11     6     2 1
    12     7     2 1
    13     7    15 2
    14     2    20 1
    15    16     8 2
    16    16    17 1
    17    20     9 2
    18    15     8 1
    19    15     9 1
    20     8    19 1
    21    17    18 1
    22    19    18 2
    23     3    21 1
    24     3    22 1
    25     5    23 1
    26     6    24 1
    27     9    25 1
    28    10    26 1
    29    10    27 1
    30    10    28 1
    31    11    29 1
    32    11    30 1
    33    11    31 1
    34    12    32 1
    35    12    33 1
    36    13    34 1
    37    16    35 1
    38    17    36 1
    39    19    37 1
@<TRIPOS>SUBSTRUCTURE
     1 26K         1 TEMP              0 ****  ****    0 ROOT
