@<TRIPOS>MOLECULE
26L
   51    55     1     0     0
SMALL
bcc


@<TRIPOS>ATOM
      1 N1           0.0000     0.0000     0.0000 nz         1 26L       0.072400
      2 C1           1.4690     0.0000     0.0000 c3         1 26L      -0.092500
      3 C6           1.9780     0.0000     1.4430 c3         1 26L       0.135500
      4 C5           3.5080    -0.0000     1.4440 c3         1 26L      -0.036400
      5 C4           4.0180    -1.2500     0.7230 c3         1 26L      -0.027400
      6 C3           3.5090    -1.2490    -0.7200 c3         1 26L      -0.015400
      7 C2           1.9790    -1.2490    -0.7200 c3         1 26L      -0.024400
      8 N2           1.4890     1.1970     2.1340 nu         1 26L      -0.563900
      9 C7           1.3570     1.1940     3.5110 cc         1 26L       0.497200
     10 C22          0.8860     2.3460     4.1760 cc         1 26L      -0.313300
     11 C21          0.7600     2.3300     5.5210 cd         1 26L      -0.085300
     12 N5           1.0940     1.1960     6.2110 na         1 26L       0.509200
     13 C8           1.5480     0.0960     5.5340 cd         1 26L       0.212500
     14 N3           1.6640     0.1120     4.2030 nd         1 26L      -0.612000
     15 N4           1.0780     0.8870     7.5750 nd         1 26L      -0.710100
     16 C20          1.4980    -0.3420     7.7450 cc         1 26L       0.515500
     17 C9           1.8020    -0.8930     6.4940 cc         1 26L      -0.269800
     18 C10          2.3100    -2.2590     6.2350 ca         1 26L      -0.002800
     19 C19          1.6860    -3.0610     5.2630 ca         1 26L      -0.097000
     20 C18          2.1320    -4.3170     5.0070 ca         1 26L      -0.092000
     21 C17          3.2320    -4.8320     5.7190 ca         1 26L      -0.036000
     22 C12          3.8680    -4.0330     6.7010 ca         1 26L      -0.033000
     23 C11          3.3960    -2.7340     6.9470 ca         1 26L      -0.076000
     24 C16          3.7120    -6.1290     5.4720 ca         1 26L      -0.095000
     25 C15          4.7780    -6.6000     6.1750 ca         1 26L      -0.089000
     26 C14          5.4030    -5.8150     7.1410 ca         1 26L      -0.091000
     27 C13          4.9660    -4.5530     7.4080 ca         1 26L      -0.087000
     28 H1          -0.3340    -0.6770     0.6570 hn         1 26L       0.225467
     29 H2          -0.3340     0.9080     0.2580 hn         1 26L       0.225467
     30 H4           1.8340     0.8830    -0.5100 hx         1 26L       0.093700
     31 H5           1.6190    -0.8870     1.9510 h1         1 26L       0.078700
     32 H6           3.8690     0.8830     0.9320 hc         1 26L       0.045700
     33 H7           3.8670    -0.0030     2.4660 hc         1 26L       0.045700
     34 H8           3.6530    -2.1330     1.2320 hc         1 26L       0.039200
     35 H9           5.1010    -1.2480     0.7220 hc         1 26L       0.039200
     36 H10          3.8690    -0.3620    -1.2280 hc         1 26L       0.037200
     37 H11          3.8690    -2.1340    -1.2290 hc         1 26L       0.037200
     38 H12          1.6200    -2.1320    -0.2070 hc         1 26L       0.034200
     39 H13          1.6200    -1.2470    -1.7420 hc         1 26L       0.034200
     40 H14          1.2940     2.0290     1.6140 hn         1 26L       0.293800
     41 H15          0.7690     3.2760     3.6320 ha         1 26L       0.134000
     42 H16          0.4000     3.2050     6.0480 h4         1 26L       0.153000
     43 H17          1.5940    -0.8490     8.6980 h4         1 26L       0.026800
     44 H18          0.8370    -2.6730     4.7130 ha         1 26L       0.093000
     45 H19          1.6420    -4.9240     4.2550 ha         1 26L       0.100000
     46 H20          3.7880    -2.1650     7.7820 ha         1 26L       0.113000
     47 H21          3.2360    -6.7520     4.7230 ha         1 26L       0.105000
     48 H22          5.1440    -7.6010     5.9810 ha         1 26L       0.106000
     49 H23          6.2500    -6.2140     7.6870 ha         1 26L       0.107000
     50 H24          5.4620    -3.9530     8.1620 ha         1 26L       0.110000
     51 H131        -0.3340    -0.2420    -0.9120 hn         1 26L       0.225467
@<TRIPOS>BOND
     1     1     2 1   
     2     1    28 1   
     3     1    29 1   
     4     1    51 1   
     5     2     3 1   
     6     2     7 1   
     7     2    30 1   
     8     3     4 1   
     9     3     8 1   
    10     3    31 1   
    11     4     5 1   
    12     4    32 1   
    13     4    33 1   
    14     5     6 1   
    15     5    34 1   
    16     5    35 1   
    17     6     7 1   
    18     6    36 1   
    19     6    37 1   
    20     7    38 1   
    21     7    39 1   
    22     8     9 1   
    23     8    40 1   
    24     9    10 1   
    25     9    14 2   
    26    10    11 2   
    27    10    41 1   
    28    11    12 1   
    29    11    42 1   
    30    12    13 1   
    31    12    15 1   
    32    13    14 1   
    33    13    17 2   
    34    15    16 2   
    35    16    17 1   
    36    16    43 1   
    37    17    18 1   
    38    18    19 ar  
    39    18    23 ar  
    40    19    20 ar  
    41    19    44 1   
    42    20    21 ar  
    43    20    45 1   
    44    21    22 ar  
    45    21    24 ar  
    46    22    23 ar  
    47    22    27 ar  
    48    23    46 1   
    49    24    25 ar  
    50    24    47 1   
    51    25    26 ar  
    52    25    48 1   
    53    26    27 ar  
    54    26    49 1   
    55    27    50 1   
@<TRIPOS>SUBSTRUCTURE
     1 26L         1 TEMP              0 ****  ****    0 ROOT
