@<TRIPOS>MOLECULE
molecule
   76    81     1     0     0
SMALL
bcc


@<TRIPOS>ATOM
      1 C            0.0000     0.0000     0.0000 ca         1 26N      -0.275800
      2 F           -7.6510    11.7490    14.4370 f          1 26N      -0.224967
      3 N            2.0570     0.0000     1.1320 nb         1 26N      -0.708000
      4 O           -4.7200     3.1750     2.3770 o          1 26N      -0.590100
      5 C1           1.3800     0.0000     0.0000 ca         1 26N       0.436200
      6 F1          -7.7560     9.8140    15.6470 f          1 26N      -0.224967
      7 C2           1.4540    -0.0000     2.3060 ca         1 26N       0.436200
      8 F2          -9.5820    10.5320    14.4770 f          1 26N      -0.224967
      9 N2          -4.6650     1.2890     3.5490 ns         1 26N      -0.559900
     10 C3           0.0760    -0.0000     2.3930 ca         1 26N      -0.275800
     11 F3          -5.3820     5.3880     3.3270 f          1 26N      -0.103900
     12 N3          -6.6330     5.5350     7.9320 nh         1 26N      -0.599000
     13 C4          -0.6760     0.0000     1.2200 ca         1 26N       0.095600
     14 N4          -6.4330     7.5330     9.9500 nh         1 26N      -0.599000
     15 C5          -2.7130     0.6260     2.2690 c          1 26N       0.643100
     16 N5          -8.2270    -1.1930     3.2140 na         1 26N      -0.177400
     17 C6          -4.2120     0.5270     2.3840 c3         1 26N       0.051700
     18 C8          -5.3470     3.3810     4.6140 ca         1 26N      -0.211600
     19 C9          -5.5450     2.7370     5.8400 ca         1 26N      -0.055000
     20 C10         -5.9670     3.4480     6.9270 ca         1 26N      -0.182000
     21 C11         -6.2030     4.8170     6.8210 ca         1 26N       0.155600
     22 C12         -6.8190     6.9540     7.6030 c3         1 26N       0.162300
     23 C13         -7.3670     7.6920     8.8270 c3         1 26N       0.161800
     24 C14         -6.8650     8.2530    11.0660 ca         1 26N       0.132600
     25 C15         -6.1190     8.2340    12.2380 ca         1 26N      -0.174000
     26 C16         -6.5490     8.9480    13.3390 ca         1 26N      -0.055500
     27 C17         -7.7200     9.6800    13.2770 ca         1 26N      -0.208300
     28 C18         -8.1860    10.4580    14.4810 c3         1 26N       0.676200
     29 C19         -8.4650     9.7010    12.1120 ca         1 26N      -0.055500
     30 C20         -8.0380     8.9930    11.0050 ca         1 26N      -0.174000
     31 C21         -6.2470     6.1120    10.2790 c3         1 26N       0.161800
     32 C22         -5.6990     5.3750     9.0560 c3         1 26N       0.162300
     33 C23         -6.0090     5.4680     5.6070 ca         1 26N      -0.244000
     34 C24         -5.5780     4.7590     4.5060 ca         1 26N       0.228900
     35 C25         -4.6150    -0.9410     2.5470 c3         1 26N      -0.009200
     36 C26         -6.1170    -1.0540     2.5380 cc         1 26N      -0.164400
     37 C27         -6.9220    -1.0840     3.6120 cd         1 26N      -0.088100
     38 C28         -8.2950    -1.2370     1.8410 ca         1 26N      -0.034200
     39 C29         -6.9770    -1.1520     1.3560 ca         1 26N      -0.097800
     40 C30         -6.7380    -1.1730    -0.0200 ca         1 26N      -0.082000
     41 C31         -7.7860    -1.2770    -0.8890 ca         1 26N      -0.150000
     42 C32         -9.0880    -1.3600    -0.4160 ca         1 26N      -0.105000
     43 C33         -9.3480    -1.3410     0.9370 ca         1 26N      -0.140000
     44 H           -0.5500     0.0000    -0.9330 ha         1 26N       0.150000
     45 H1           1.9140    -0.0000    -0.9420 h4         1 26N       0.024100
     46 HN1         -2.5950    -0.4290     0.5260 hn         1 26N       0.327500
     47 H2           2.0470    -0.0000     3.2120 h4         1 26N       0.024100
     48 HN2         -4.7630     0.8350     4.4360 hn         1 26N       0.315500
     49 H3          -0.4130    -0.0000     3.3600 ha         1 26N       0.150000
     50 HN5         -9.0140    -1.2340     3.8310 hn         1 26N       0.298700
     51 H6          -4.6710     0.9290     1.4880 h1         1 26N       0.107700
     52 H9          -5.3630     1.6720     5.9270 ha         1 26N       0.129000
     53 H10         -6.1200     2.9460     7.8750 ha         1 26N       0.141000
     54 H12         -7.5220     7.0450     6.7840 h1         1 26N       0.057950
     55 H12A        -5.8670     7.3860     7.3200 h1         1 26N       0.057950
     56 H13         -7.4750     8.7440     8.5950 h1         1 26N       0.055700
     57 H13A        -8.3300     7.2750     9.0980 h1         1 26N       0.055700
     58 H15         -5.2010     7.6610    12.2880 ha         1 26N       0.145000
     59 H16         -5.9680     8.9340    14.2540 ha         1 26N       0.148000
     60 H19         -9.3810    10.2770    12.0660 ha         1 26N       0.148000
     61 H20         -8.6220     9.0100    10.0930 ha         1 26N       0.145000
     62 H21         -5.5440     6.0220    11.0990 h1         1 26N       0.055700
     63 H21A        -7.1990     5.6810    10.5630 h1         1 26N       0.055700
     64 H22         -4.7360     5.7910     8.7860 h1         1 26N       0.057950
     65 H22A        -5.5910     4.3220     9.2880 h1         1 26N       0.057950
     66 H23         -6.2310     6.5250     5.5180 ha         1 26N       0.157000
     67 H25         -4.2040    -1.5210     1.7290 hc         1 26N       0.056700
     68 H25A        -4.2300    -1.3190     3.4860 hc         1 26N       0.056700
     69 H27         -6.5880    -1.0320     4.6410 h4         1 26N       0.160000
     70 H30         -5.7240    -1.1080    -0.3960 ha         1 26N       0.123000
     71 H31         -7.5990    -1.2930    -1.9560 ha         1 26N       0.131000
     72 H32         -9.9090    -1.4420    -1.1190 ha         1 26N       0.133000
     73 H33        -10.3680    -1.4070     1.2950 ha         1 26N       0.128000
     74 N1          -2.0710    -0.0010     1.2640 ns         1 26N      -0.477100
     75 C7          -4.8920     2.6140     3.4420 c          1 26N       0.688700
     76 O1          -2.0840     1.2710     3.0810 o          1 26N      -0.573100
@<TRIPOS>BOND
     1     1     5 ar
     2     1    13 ar
     3     2    28 1
     4     3     5 ar
     5     3     7 ar
     6     4    75 2
     7     6    28 1
     8    74    13 1
     9    74    15 1
    10    76    15 2
    11     7    10 ar
    12     8    28 1
    13     9    17 1
    14     9    75 1
    15    10    13 ar
    16    11    34 1
    17    12    21 1
    18    12    22 1
    19    12    32 1
    20    14    23 1
    21    14    24 1
    22    14    31 1
    23    15    17 1
    24    16    37 1
    25    16    38 1
    26    17    35 1
    27    75    18 1
    28    18    19 ar
    29    18    34 ar
    30    19    20 ar
    31    20    21 ar
    32    21    33 ar
    33    22    23 1
    34    24    25 ar
    35    24    30 ar
    36    25    26 ar
    37    26    27 ar
    38    27    28 1
    39    27    29 ar
    40    29    30 ar
    41    31    32 1
    42    33    34 ar
    43    35    36 1
    44    36    37 2
    45    36    39 1
    46    38    39 ar
    47    38    43 ar
    48    39    40 ar
    49    40    41 ar
    50    41    42 ar
    51    42    43 ar
    52     1    44 1
    53     5    45 1
    54    74    46 1
    55     7    47 1
    56     9    48 1
    57    10    49 1
    58    16    50 1
    59    17    51 1
    60    19    52 1
    61    20    53 1
    62    22    54 1
    63    22    55 1
    64    23    56 1
    65    23    57 1
    66    25    58 1
    67    26    59 1
    68    29    60 1
    69    30    61 1
    70    31    62 1
    71    31    63 1
    72    32    64 1
    73    32    65 1
    74    33    66 1
    75    35    67 1
    76    35    68 1
    77    37    69 1
    78    40    70 1
    79    41    71 1
    80    42    72 1
    81    43    73 1
@<TRIPOS>SUBSTRUCTURE
     1 26N         1 TEMP              0 ****  ****    0 ROOT
