@<TRIPOS>MOLECULE
molecule
   43    44     1     0     0
SMALL
bcc


@<TRIPOS>ATOM
      1 C1           0.0000     0.0000     0.0000 c3         1 26O       0.316500
      2 C2           1.5310     0.0000     0.0000 c3         1 26O       0.098100
      3 O2           2.0090    -1.1670    -0.6710 oh         1 26O      -0.589800
      4 C3           2.0330     0.0000     1.4470 c3         1 26O       0.105100
      5 O3           3.4600     0.0720     1.4580 oh         1 26O      -0.610800
      6 C4           1.4510     1.2140     2.1780 c3         1 26O       0.098100
      7 O4           1.8550     1.1850     3.5480 oh         1 26O      -0.599800
      8 C5          -0.0770     1.1660     2.0930 c3         1 26O       0.152100
      9 O5          -0.4760     1.1370     0.7210 os         1 26O      -0.409600
     10 C6          -0.6640     2.4070     2.7700 c3         1 26O       0.152400
     11 O6          -2.0890     2.3070     2.7940 oh         1 26O      -0.588800
     12 NAL         -0.4880     0.0570    -1.3810 ns         1 26O      -0.482900
     13 CAM         -1.6140    -0.5990    -1.7250 cs         1 26O       0.655400
     14 NAN         -2.0630    -0.5450    -2.9950 ns         1 26O      -0.296900
     15 SAO         -2.4740    -1.4980    -0.5500 s          1 26O      -0.688400
     16 NAP         -1.3590     0.1910    -3.9570 n2         1 26O      -0.462300
     17 CAQ         -1.7920     0.2420    -5.1800 ce         1 26O       0.422800
     18 CAR         -1.0520     1.0170    -6.1910 ca         1 26O      -0.166900
     19 CAS          0.1200     1.7000    -5.8370 ca         1 26O       0.172100
     20 CAT          0.8090     2.4250    -6.7950 ca         1 26O      -0.229000
     21 CAU          0.3410     2.4750    -8.0960 ca         1 26O      -0.070000
     22 CAV         -0.8160     1.8010    -8.4500 ca         1 26O      -0.168000
     23 CAW         -1.5100     1.0710    -7.5090 ca         1 26O      -0.067000
     24 OAX          0.5780     1.6530    -4.5590 oh         1 26O      -0.473100
     25 H1          -0.3590    -0.9040     0.4770 h2         1 26O       0.121700
     26 H2           1.8910     0.8870    -0.5060 h1         1 26O       0.048700
     27 HO2          2.8790    -1.0080    -0.9970 ho         1 26O       0.413000
     28 H3           1.7080    -0.9080     1.9410 h1         1 26O       0.069700
     29 HO3          3.8080    -0.6470     1.9590 ho         1 26O       0.417000
     30 H4           1.8090     2.1220     1.7090 h1         1 26O       0.052700
     31 HO4          2.5060     1.8500     3.6980 ho         1 26O       0.412000
     32 H5          -0.4360     0.2740     2.5910 h1         1 26O       0.075700
     33 H6          -0.2900     2.4770     3.7840 h1         1 26O       0.033700
     34 H6A         -0.3730     3.2920     2.2160 h1         1 26O       0.033700
     35 HO6         -2.4380     2.9370     3.4030 ho         1 26O       0.401000
     36 HNAL         0.0000     0.6050    -2.0620 hn         1 26O       0.343500
     37 HNAN        -2.8990    -1.0310    -3.2510 hn         1 26O       0.347500
     38 HAQ         -2.6970    -0.2850    -5.4560 h4         1 26O      -0.005200
     39 HAT          1.7140     2.9550    -6.5250 ha         1 26O       0.135000
     40 HAU          0.8820     3.0450    -8.8410 ha         1 26O       0.136000
     41 HAV         -1.1730     1.8440    -9.4710 ha         1 26O       0.138000
     42 HAW         -2.4150     0.5450    -7.7910 ha         1 26O       0.139000
     43 HOAX         1.3170     2.2310    -4.4680 ho         1 26O       0.418000
@<TRIPOS>BOND
     1    12     1 1
     2     2     1 1
     3     9     1 1
     4     1    25 1
     5     2     4 1
     6     2     3 1
     7     2    26 1
     8     3    27 1
     9     6     4 1
    10     5     4 1
    11     4    28 1
    12     5    29 1
    13     6     7 1
    14     6     8 1
    15     6    30 1
    16     7    31 1
    17    10     8 1
    18     9     8 1
    19     8    32 1
    20    11    10 1
    21    10    33 1
    22    10    34 1
    23    11    35 1
    24    12    13 1
    25    12    36 1
    26    14    13 1
    27    13    15 2
    28    16    14 1
    29    14    37 1
    30    17    16 2
    31    18    17 1
    32    17    38 1
    33    19    18 ar
    34    23    18 ar
    35    20    19 ar
    36    19    24 1
    37    21    20 ar
    38    20    39 1
    39    21    22 ar
    40    21    40 1
    41    22    23 ar
    42    22    41 1
    43    23    42 1
    44    24    43 1
@<TRIPOS>SUBSTRUCTURE
     1 26O         1 TEMP              0 ****  ****    0 ROOT
