@<TRIPOS>MOLECULE
26O
   43    45     1     0     0
SMALL
bcc


@<TRIPOS>ATOM
      1 C1           0.0000     0.0000     0.0000 c3         1 26O       0.032000
      2 C2           1.5310     0.0000     0.0000 c3         1 26O       0.024000
      3 O2           2.0090    -1.1670    -0.6710 oh         1 26O      -0.303000
      4 C3           2.0330     0.0000     1.4470 c3         1 26O       0.032000
      5 O3           3.4600     0.0720     1.4580 oh         1 26O      -0.321000
      6 C4           1.4510     1.2140     2.1780 c3         1 26O       0.024000
      7 O4           1.8550     1.1850     3.5480 oh         1 26O      -0.305000
      8 C5          -0.0770     1.1660     2.0930 c3         1 26O       0.060000
      9 O5          -0.4760     1.1370     0.7210 os         1 26O      -0.241000
     10 C6          -0.6640     2.4070     2.7700 c3         1 26O       0.075000
     11 O6          -2.0890     2.3070     2.7940 oh         1 26O      -0.298000
     12 NAL         -0.4880     0.0570    -1.3810 ns         1 26O       0.176000
     13 CAM         -1.6140    -0.5990    -1.7250 c2         1 26O      -0.122000
     14 NAN         -2.0630    -0.5450    -2.9950 ns         1 26O       0.204000
     15 SAO         -2.4740    -1.4980    -0.5500 s          1 26O      -0.403000
     16 NAP         -1.3590     0.1910    -3.9570 n2         1 26O      -0.068000
     17 CAQ         -1.7920     0.2420    -5.1800 c2         1 26O      -0.405000
     18 CAR         -1.0520     1.0170    -6.1910 c3         1 26O      -0.174000
     19 CAS          0.1200     1.7000    -5.8370 c2         1 26O       0.120000
     20 CAT          0.8090     2.4250    -6.7950 c2         1 26O      -0.222000
     21 CAU          0.3410     2.4750    -8.0960 c2         1 26O      -0.010000
     22 CAV         -0.8160     1.8010    -8.4500 c2         1 26O      -0.162000
     23 CAW         -1.5100     1.0710    -7.5090 c2         1 26O       0.024000
     24 OAX          0.5780     1.6530    -4.5590 oh         1 26O      -0.211000
     25 H1          -0.3590    -0.9040     0.4770 h2         1 26O       0.141000
     26 H2           1.8910     0.8880    -0.5060 h1         1 26O       0.054000
     27 HO2          2.8720    -1.0020    -1.0140 ho         1 26O       0.199000
     28 H3           1.7080    -0.9080     1.9410 h1         1 26O       0.075000
     29 HO3          3.8070    -0.6310     1.9810 ho         1 26O       0.203000
     30 H4           1.8090     2.1220     1.7090 h1         1 26O       0.058000
     31 HO4          2.5120     1.8450     3.6960 ho         1 26O       0.197000
     32 H5          -0.4360     0.2740     2.5910 h1         1 26O       0.082000
     33 H6          -0.3740     3.2920     2.2160 h1         1 26O       0.034500
     34 H6A         -0.2900     2.4770     3.7840 h1         1 26O       0.034500
     35 HO6         -2.4390     2.9430     3.3960 ho         1 26O       0.185000
     36 HNAL         0.0000     0.6050    -2.0610 hn         1 26O       0.095000
     37 HNAN        -2.8990    -1.0310    -3.2510 hn         1 26O       0.122000
     38 HAQ         -0.8870    -0.0990    -5.6690 DU         1 26O       0.326000
     39 HAT          1.7140     2.9550    -6.5260 ha         1 26O       0.116000
     40 HAU          0.8820     3.0450    -8.8410 ha         1 26O       0.105000
     41 HAV         -1.1730     1.8440    -9.4710 ha         1 26O       0.116000
     42 HAW         -2.4150     0.5450    -7.7910 ha         1 26O       0.126000
     43 HOAX         1.2790     2.2750    -4.4530 ho         1 26O       0.206000
@<TRIPOS>BOND
     1     1     2 1   
     2     1     9 1   
     3     1    12 1   
     4     1    25 1   
     5     2     3 1   
     6     2     4 1   
     7     2    26 1   
     8     3    27 1   
     9     4     5 1   
    10     4     6 1   
    11     4    28 1   
    12     5    29 1   
    13     6     7 1   
    14     6     8 1   
    15     6    30 1   
    16     7    31 1   
    17     8     9 1   
    18     8    10 1   
    19     8    32 1   
    20    10    11 1   
    21    10    33 1   
    22    10    34 1   
    23    11    35 1   
    24    12    13 1   
    25    12    36 1   
    26    13    14 1   
    27    13    15 1   
    28    14    16 1   
    29    14    37 1   
    30    16    17 1   
    31    17    18 1   
    32    17    38 1   
    33    18    19 1   
    34    18    23 1   
    35    18    38 1   
    36    19    20 1   
    37    19    24 1   
    38    20    21 1   
    39    20    39 1   
    40    21    22 1   
    41    21    40 1   
    42    22    23 1   
    43    22    41 1   
    44    23    42 1   
    45    24    43 1   
@<TRIPOS>SUBSTRUCTURE
     1 26O         1 TEMP              0 ****  ****    0 ROOT
