@<TRIPOS>MOLECULE
26P
   23    22     1     0     0
SMALL
bcc


@<TRIPOS>ATOM
      1 C1           0.0000     0.0000     0.0000 c          1 26P       0.961600
      2 O11         -0.6710     0.5810    -1.0060 o          1 26P      -0.832800
      3 O12         -0.6030    -0.5230     0.9060 o          1 26P      -0.832800
      4 C2           1.5070     0.0000     0.0000 c3         1 26P      -0.201500
      5 N2           1.9960     0.0000     1.3840 nz         1 26P       0.082400
      6 C3           2.0180    -1.2480    -0.7210 c3         1 26P      -0.027400
      7 C4           3.5460    -1.2480    -0.7210 c3         1 26P      -0.044400
      8 C5           4.0580    -2.4960    -1.4420 c3         1 26P      -0.131400
      9 C6           5.5640    -2.4970    -1.4410 c          1 26P       0.518100
     10 O6           6.1670    -1.5910    -0.9190 o          1 26P      -0.591100
     11 C7           6.3110    -3.6130    -2.0870 c          1 26P       0.894600
     12 O71          7.6560    -3.6140    -2.0870 o          1 26P      -0.857800
     13 O72          5.7050    -4.5220    -2.6120 o          1 26P      -0.857800
     14 H2           1.8680     0.8850    -0.5100 hx         1 26P       0.086700
     15 HN21         1.4090     0.5850     1.9460 hn         1 26P       0.210467
     16 HN22         1.9780    -0.9340     1.7450 hn         1 26P       0.210467
     17 H31          1.6570    -2.1330    -0.2110 hc         1 26P       0.051700
     18 H32          1.6570    -1.2480    -1.7420 hc         1 26P       0.051700
     19 H41          3.9070    -1.2490     0.3010 hc         1 26P       0.006700
     20 H42          3.9070    -0.3630    -1.2300 hc         1 26P       0.006700
     21 H51          3.6970    -2.4950    -2.4640 hc         1 26P       0.043200
     22 H52          3.6960    -3.3810    -0.9330 hc         1 26P       0.043200
     23 H23          2.9410     0.3290     1.4040 hn         1 26P       0.210467
@<TRIPOS>BOND
     1     1     2 1   
     2     1     3 1   
     3     1     4 1   
     4     4     5 1   
     5     4     6 1   
     6     4    14 1   
     7     5    15 1   
     8     5    16 1   
     9     5    23 1   
    10     6     7 1   
    11     6    17 1   
    12     6    18 1   
    13     7     8 1   
    14     7    19 1   
    15     7    20 1   
    16     8     9 1   
    17     8    21 1   
    18     8    22 1   
    19     9    10 2   
    20     9    11 1   
    21    11    12 1   
    22    11    13 1   
@<TRIPOS>SUBSTRUCTURE
     1 26P         1 TEMP              0 ****  ****    0 ROOT
