@<TRIPOS>MOLECULE
26S
   72    75     1     0     0
SMALL
bcc


@<TRIPOS>ATOM
      1 C1           0.0000     0.0000     0.0000 ca         1 26S      -0.039500
      2 C2          -0.0040     0.0010     2.3970 ca         1 26S      -0.039500
      3 C3          -7.6480     1.0350     0.0700 ca         1 26S      -0.138500
      4 C4          -9.1970    -0.6730    -0.5750 ca         1 26S      -0.138500
      5 C5           1.3810     0.0000     0.0000 ca         1 26S      -0.181000
      6 C6           1.3760     0.0000     2.4020 ca         1 26S      -0.181000
      7 C7          -6.5940     0.2040    -0.2610 ca         1 26S       0.018000
      8 C8          -8.1440    -1.5030    -0.9080 ca         1 26S       0.018000
      9 C9          -7.2100    -6.1980     3.7190 ca         1 26S      -0.452600
     10 C10         -8.9490     0.5970    -0.0870 ca         1 26S      -0.036300
     11 C11         -0.6920     0.0000     1.1970 ca         1 26S      -0.172300
     12 C12          2.0740     0.0000     1.2010 ca         1 26S       0.158100
     13 C13         -6.8420    -1.0640    -0.7500 ca         1 26S      -0.152500
     14 C14         -6.5700    -4.9710     3.5740 ca         1 26S       0.582200
     15 C15         -7.8150    -6.4890     4.9340 ca         1 26S       0.713600
     16 C16         -7.1450    -4.4350     5.7420 ca         1 26S       0.896300
     17 C17         -4.0130    -1.6270     1.1910 c          1 26S       0.586100
     18 C18         -6.8950    -4.7230     1.2560 c3         1 26S       0.118800
     19 C19         -6.1360    -4.5250    -0.0610 c3         1 26S       0.240800
     20 C20         -5.3370    -3.3040     2.4580 c3         1 26S       0.127800
     21 C21         -4.5160    -3.0480     1.1900 c3         1 26S       0.146500
     22 C22        -10.4990     2.3310    -0.9490 c3         1 26S       0.010900
     23 C23          4.0790    -0.0010     2.4790 c3         1 26S       0.244700
     24 C24         -9.0470    -7.8950     6.3990 c3         1 26S       0.256700
     25 C25         -7.7620    -3.9300     7.9780 c3         1 26S       0.259700
     26 C27         -2.2000     0.0000     1.1950 c3         1 26S       0.114300
     27 N28         -6.5590    -4.1220     4.5990 nb         1 26S      -0.718000
     28 N29         -7.7630    -5.5920     5.9140 nb         1 26S      -0.809000
     29 N30         -5.9520    -4.6370     2.3790 nh         1 26S      -0.455300
     30 N31         -5.3800    -3.2660     0.0210 n3         1 26S      -0.523500
     31 N32         -2.6880    -1.3810     1.1930 ns         1 26S      -0.147900
     32 O33         -4.8010    -0.7050     1.1900 o          1 26S      -0.675100
     33 O36          3.4320    -0.0010     1.2040 os         1 26S      -0.306900
     34 O37         -8.4500    -7.6720     5.1200 os         1 26S      -0.423100
     35 O38         -7.1140    -3.5460     6.7640 os         1 26S      -0.409100
     36 S39         -5.4990    -2.1240    -1.1730 sy         1 26S       1.060200
     37 H1          -0.5410    -0.0000    -0.9380 ha         1 26S       0.110000
     38 H2          -0.5490     0.0010     3.3330 ha         1 26S       0.110000
     39 H3          -7.4530     2.0300     0.4530 ha         1 26S       0.109500
     40 H4         -10.2170    -1.0160    -0.6980 ha         1 26S       0.109500
     41 H5           1.9230    -0.0000    -0.9380 ha         1 26S       0.119500
     42 H6           1.9150     0.0000     3.3420 ha         1 26S       0.119500
     43 H7          -5.5740     0.5470    -0.1370 ha         1 26S       0.130500
     44 H8          -8.3380    -2.4970    -1.2900 ha         1 26S       0.130500
     45 H9          -7.2360    -6.9100     2.9020 ha         1 26S       0.146000
     46 H18         -7.6470    -3.9500     1.3580 h1         1 26S       0.027200
     47 H18A        -7.3670    -5.6970     1.2560 h1         1 26S       0.027200
     48 H19         -6.8410    -4.4720    -0.8820 h1         1 26S       0.031200
     49 H19A        -5.4520    -5.3500    -0.2130 h1         1 26S       0.031200
     50 H20         -6.1140    -2.5540     2.5420 h1         1 26S       0.047700
     51 H20A        -4.6880    -3.2580     3.3240 h1         1 26S       0.047700
     52 H21         -3.6790    -3.7360     1.1550 h1         1 26S       0.029700
     53 H22        -10.7680     1.6670    -1.7620 hc         1 26S       0.003033
     54 H22A       -11.3460     2.9580    -0.6990 hc         1 26S       0.003033
     55 H22B        -9.6660     2.9530    -1.2520 hc         1 26S       0.003033
     56 H23          3.7870    -0.8850     3.0320 h1         1 26S      -0.002300
     57 H23A         3.7870     0.8840     3.0320 h1         1 26S      -0.002300
     58 H23B         5.1530    -0.0010     2.3390 h1         1 26S      -0.002300
     59 H24         -9.7920    -7.1320     6.5880 h1         1 26S       0.001367
     60 H24A        -8.2830    -7.8510     7.1660 h1         1 26S       0.001367
     61 H24B        -9.5170    -8.8710     6.4130 h1         1 26S       0.001367
     62 H25         -8.8120    -4.1140     7.7850 h1         1 26S       0.000367
     63 H25A        -7.3030    -4.8320     8.3630 h1         1 26S       0.000367
     64 H25B        -7.6630    -3.1350     8.7080 h1         1 26S       0.000367
     65 H26        -10.9420     0.9060     0.5970 hc         1 26S       0.017200
     66 H26A        -9.7970     2.1670     1.0750 hc         1 26S       0.017200
     67 H27         -2.5630     0.5110     2.0790 h1         1 26S       0.033200
     68 H27A        -2.5600     0.5110     0.3100 h1         1 26S       0.033200
     69 HN32        -2.0390    -2.1420     1.2330 hn         1 26S       0.171500
     70 C26        -10.0980     1.5040     0.2740 c3         1 26S       0.022900
     71 O34         -5.8880    -2.8150    -2.3520 o          1 26S      -0.592800
     72 O35         -4.3220    -1.3330    -1.0890 o          1 26S      -0.592800
@<TRIPOS>BOND
     1     1     5 ar  
     2     1    11 ar  
     3     1    37 1   
     4     2     6 ar  
     5     2    11 ar  
     6     2    38 1   
     7     3     7 ar  
     8     3    10 ar  
     9     3    39 1   
    10     4     8 ar  
    11     4    10 ar  
    12     4    40 1   
    13     5    12 ar  
    14     5    41 1   
    15     6    12 ar  
    16     6    42 1   
    17     7    13 ar  
    18     7    43 1   
    19     8    13 ar  
    20     8    44 1   
    21     9    14 ar  
    22     9    15 ar  
    23     9    45 1   
    24    10    70 1   
    25    11    26 1   
    26    12    33 1   
    27    13    36 1   
    28    14    27 ar  
    29    14    29 1   
    30    15    28 ar  
    31    15    34 1   
    32    16    27 ar  
    33    16    28 ar  
    34    16    35 1   
    35    17    21 1   
    36    17    31 1   
    37    17    32 2   
    38    18    19 1   
    39    18    29 1   
    40    18    46 1   
    41    18    47 1   
    42    19    30 1   
    43    19    48 1   
    44    19    49 1   
    45    20    21 1   
    46    20    29 1   
    47    20    50 1   
    48    20    51 1   
    49    21    30 1   
    50    21    52 1   
    51    22    53 1   
    52    22    54 1   
    53    22    55 1   
    54    22    70 1   
    55    23    33 1   
    56    23    56 1   
    57    23    57 1   
    58    23    58 1   
    59    24    34 1   
    60    24    59 1   
    61    24    60 1   
    62    24    61 1   
    63    25    35 1   
    64    25    62 1   
    65    25    63 1   
    66    25    64 1   
    67    26    31 1   
    68    26    67 1   
    69    26    68 1   
    70    30    36 1   
    71    31    69 1   
    72    36    71 2   
    73    36    72 2   
    74    65    70 1   
    75    66    70 1   
@<TRIPOS>SUBSTRUCTURE
     1 26S         1 TEMP              0 ****  ****    0 ROOT
