@<TRIPOS>MOLECULE
molecule
   20    19     1     0     0
SMALL
bcc


@<TRIPOS>ATOM
      1 C01          0.0000     0.0000     0.0000 c3         1 26T      -0.198100
      2 C02          1.5060     0.0000     0.0000 c          1 26T       0.566100
      3 C03          2.2590     0.0000     1.3060 c3         1 26T      -0.069900
      4 C04          2.1910     1.3730     1.9250 c          1 26T       0.525100
      5 C05          0.9580     1.7980     2.6800 c3         1 26T       0.137400
      6 O06          1.1350     3.1300     3.1670 os         1 26T      -0.544200
      7 P07          0.0120     3.9060     4.0210 p5         1 26T       1.166900
      8 O08         -0.2070     3.1560     5.4280 o          1 26T      -0.901833
      9 O09          0.4920     5.4190     4.2890 o          1 26T      -0.901833
     10 O10         -1.2610     3.9200     3.2650 o          1 26T      -0.901833
     11 O11          3.1250     2.1310     1.8160 o          1 26T      -0.465100
     12 O12          3.6250    -0.3470     1.0690 oh         1 26T      -0.570800
     13 O13          2.1110     0.0020    -1.0450 o          1 26T      -0.532100
     14 H1          -0.3610     1.0130    -0.1290 hc         1 26T       0.064367
     15 H2          -0.3610    -0.6180    -0.8130 hc         1 26T       0.064367
     16 H3          -0.3610    -0.3950     0.9420 hc         1 26T       0.064367
     17 H4           1.8150    -0.7230     1.9790 h1         1 26T       0.050700
     18 H5           0.7960     1.1270     3.5140 h1         1 26T       0.031200
     19 H6           0.1010     1.7660     2.0180 h1         1 26T       0.031200
     20 H9           3.8460    -1.1160     1.5690 ho         1 26T       0.382000
@<TRIPOS>BOND
     1    13     2 2   
     2     1     2 1   
     3     2     3 1   
     4    11     4 2   
     5    10     7 1   
     6     3     4 1   
     7     3    12 1   
     8     4     5 1   
     9     6     7 1   
    10     6     5 1   
    11     7     9 1   
    12     7     8 1   
    13     1    14 1   
    14     1    15 1   
    15     1    16 1   
    16     3    17 1   
    17     5    18 1   
    18     5    19 1   
    19    12    20 1   
@<TRIPOS>SUBSTRUCTURE
     1 26T         1 TEMP              0 ****  ****    0 ROOT
