@<TRIPOS>MOLECULE
26T
   20    19     1     0     0
SMALL
bcc


@<TRIPOS>ATOM
      1 C01        -0.1330    0.5770    0.5540 c3        1 26T     -0.298100
      2 C02         1.2600    0.1810    0.3080 c         1 26T      0.588100
      3 C03         2.1280   -0.0520    1.5370 c3        1 26T     -0.088900
      4 C04         2.5310    1.2640    2.2110 c         1 26T      0.540100
      5 C05         1.5750    1.7530    3.2920 c3        1 26T      0.144400
      6 O06         1.2800    3.0780    3.1920 os        1 26T     -0.536200
      7 P07        -0.4020    3.4450    2.8910 p5        1 26T      1.314900
      8 O08        -1.0800    2.2600    3.5260 o         1 26T     -0.908500
      9 O09        -0.5740    4.7800    3.5420 o         1 26T     -0.908500
     10 O10        -0.4230    3.3910    1.3800 o         1 26T     -0.908500
     11 O11         3.6180    1.7660    1.9070 o         1 26T     -0.576100
     12 O12         3.2810   -0.8100    1.1940 oh        1 26T     -0.619800
     13 O13         1.7620    0.0190   -0.8190 o         1 26T     -0.627100
     14 H1         -0.1750    1.7080    0.8720 hc        1 26T      0.112700
     15 H2         -0.7610    0.4630   -0.3570 hc        1 26T      0.112700
     16 H3         -0.5800    0.0210    1.4110 hc        1 26T      0.112700
     17 H4          1.5730   -0.6970    2.2740 h1        1 26T      0.087700
     18 H5          2.1310    1.5450    4.2590 h1        1 26T      0.022200
     19 H6          0.6370    1.1190    3.2650 h1        1 26T      0.022200
     20 H9          3.7720   -0.2720    0.5590 ho        1 26T      0.413000
@<TRIPOS>BOND
     1    1    2 1   
     2    1   14 1   
     3    1   15 1   
     4    1   16 1   
     5    2    3 1   
     6    2   13 2   
     7    3    4 1   
     8    3   12 1   
     9    3   17 1   
    10    4    5 1   
    11    4   11 2   
    12    5    6 1   
    13    5   18 1   
    14    5   19 1   
    15    6    7 1   
    16    7    8 1   
    17    7    9 1   
    18    7   10 1   
    19   12   20 1   
@<TRIPOS>SUBSTRUCTURE
     1 26T         1 TEMP              0 ****  ****    0 ROOT
