@<TRIPOS>MOLECULE
molecule
   54    55     1     0     0
SMALL
bcc


@<TRIPOS>ATOM
      1 C15          0.0000     0.0000     0.0000 c3         1 26U      -0.148400
      2 C33          1.5290     0.0000     0.0000 c3         1 26U      -0.062400
      3 C17          2.0390     0.0000     1.4420 c3         1 26U      -0.081700
      4 C12          3.5650     0.1260     1.4440 c3         1 26U      -0.088100
      5 C49          1.6350    -1.3070     2.1260 c3         1 26U      -0.088100
      6 C14         -0.5030     0.0010    -1.4210 c          1 26U       0.688100
      7 O32          0.2860     0.0000    -2.3430 o          1 26U      -0.596100
      8 N1          -1.8270     0.0010    -1.6680 n          1 26U      -0.485800
      9 C1          -2.4520     0.0000    -2.9990 c3         1 26U       0.047700
     10 C7          -2.0160     1.2200    -3.7690 c          1 26U       0.651100
     11 O22         -1.2570     2.0180    -3.2620 o          1 26U      -0.559100
     12 C2          -3.9800     0.0260    -2.7880 c3         1 26U      -0.094400
     13 C3          -4.1230     0.6110    -1.3580 c3         1 26U      -0.095400
     14 C4          -2.8920    -0.0060    -0.6460 c3         1 26U       0.097000
     15 N23         -2.4700     1.4240    -5.0220 ns         1 26U      -0.601900
     16 C24         -2.0470     2.6090    -5.7700 c3         1 26U       0.151300
     17 C25         -2.6920     2.6010    -7.1320 ca         1 26U      -0.048300
     18 C30         -2.0490     1.9900    -8.1940 ca         1 26U      -0.102000
     19 C29         -2.6370     1.9730    -9.4420 ca         1 26U      -0.086500
     20 C28         -3.8770     2.5830    -9.6340 ca         1 26U      -0.196900
     21 C21         -4.5100     2.5730   -10.9740 ce         1 26U       0.542800
     22 N46         -5.6680     3.1430   -11.1500 n2         1 26U      -0.682100
     23 N47         -3.8750     1.9620   -12.0320 nz         1 26U      -0.801600
     24 C27         -4.5170     3.2000    -8.5610 ca         1 26U      -0.086500
     25 C26         -3.9220     3.2060    -7.3160 ca         1 26U      -0.102000
     26 H15         -0.3610     0.8840     0.5110 hc         1 26U       0.062700
     27 H15A        -0.3610    -0.8850     0.5100 hc         1 26U       0.062700
     28 H33          1.8910    -0.8850    -0.5110 hc         1 26U       0.059700
     29 H33A         1.8910     0.8840    -0.5110 hc         1 26U       0.059700
     30 H17          1.6070     0.8370     1.9780 hc         1 26U       0.047700
     31 H12          3.9980    -0.7280     0.9370 hc         1 26U       0.035033
     32 H12A         3.8520     1.0350     0.9310 hc         1 26U       0.035033
     33 H12B         3.9230     0.1590     2.4660 hc         1 26U       0.035033
     34 H49          2.3250    -1.5200     2.9340 hc         1 26U       0.035033
     35 H49A         1.6610    -2.1150     1.4060 hc         1 26U       0.035033
     36 H49B         0.6320    -1.2110     2.5250 hc         1 26U       0.035033
     37 H1          -2.1710    -0.8990    -3.5340 h1         1 26U       0.074700
     38 H2          -4.3890    -0.9760    -2.8330 hc         1 26U       0.055700
     39 H2A         -4.4550     0.6750    -3.5140 hc         1 26U       0.055700
     40 H3          -5.0440     0.2780    -0.8940 hc         1 26U       0.064200
     41 H3A         -4.0580     1.6930    -1.3740 hc         1 26U       0.064200
     42 H4          -3.1070    -1.0210    -0.3340 h1         1 26U       0.054200
     43 H4A         -2.6030     0.6030     0.2020 h1         1 26U       0.054200
     44 HN23        -3.0640     0.7440    -5.4550 hn         1 26U       0.310500
     45 H24         -2.3480     3.5010    -5.2340 h1         1 26U       0.074700
     46 H24A        -0.9700     2.6010    -5.8800 h1         1 26U       0.074700
     47 H30         -1.0860     1.5170    -8.0440 ha         1 26U       0.168000
     48 H29         -2.1330     1.4940   -10.2730 ha         1 26U       0.139000
     49 HN46        -6.0980     3.1380   -12.0540 hn         1 26U       0.433400
     50 HN47        -3.7360     0.9930   -11.8240 hn         1 26U       0.465800
     51 HN4A        -2.9890     2.4000   -12.1880 hn         1 26U       0.465800
     52 H27         -5.4800     3.6750    -8.7050 ha         1 26U       0.139000
     53 H26         -4.4180     3.6860    -6.4820 ha         1 26U       0.168000
     54 H473        -4.4390     2.0480   -12.8550 hn         1 26U       0.465800
@<TRIPOS>BOND
     1    14     8 1
     2     9     8 1
     3     8     6 1
     4    12     9 1
     5    10     9 1
     6     9    37 1
     7    11    10 2
     8    10    15 1
     9    16    15 1
    10    15    44 1
    11    16    17 1
    12    16    45 1
    13    16    46 1
    14    17    25 ar
    15    17    18 ar
    16    25    24 ar
    17    25    53 1
    18    24    20 ar
    19    24    52 1
    20    19    20 ar
    21    20    21 1
    22    21    22 2
    23    21    23 1
    24    22    49 1
    25    23    50 1
    26    23    51 1
    27    18    19 ar
    28    19    48 1
    29    18    47 1
    30    13    12 1
    31    12    38 1
    32    12    39 1
    33    13    14 1
    34    13    40 1
    35    14    42 1
    36     6     7 2
    37     6     1 1
    38     1     2 1
    39     1    26 1
    40     1    27 1
    41     2     3 1
    42     2    28 1
    43     2    29 1
    44     4     3 1
    45     3     5 1
    46     3    30 1
    47     5    34 1
    48     5    35 1
    49     5    36 1
    50     4    31 1
    51     4    32 1
    52     4    33 1
    53    13    41 1
    54    14    43 1
    55    54    23 1
@<TRIPOS>SUBSTRUCTURE
     1 26U         1 TEMP              0 ****  ****    0 ROOT
