@<TRIPOS>MOLECULE
26U
   54    55     1     0     0
SMALL
bcc


@<TRIPOS>ATOM
      1 C15          0.0000     0.0000     0.0000 c3         1 26U      -0.100400
      2 C33          1.5290     0.0000     0.0000 c3         1 26U      -0.013400
      3 C17          2.0390     0.0000     1.4420 c3         1 26U      -0.058700
      4 C12          3.5650     0.1260     1.4440 c3         1 26U       0.004900
      5 C49          1.6350    -1.3070     2.1260 c3         1 26U       0.004900
      6 C14         -0.5030     0.0010    -1.4210 c          1 26U       0.617100
      7 O32          0.2860     0.0000    -2.3430 o          1 26U      -0.636100
      8 N1          -1.8270     0.0010    -1.6680 n          1 26U      -0.152800
      9 C1          -2.4520     0.0000    -2.9990 c3         1 26U      -0.027300
     10 C7          -2.0160     1.2200    -3.7690 c          1 26U       0.567100
     11 O22         -1.2570     2.0180    -3.2620 o          1 26U      -0.596100
     12 C2          -3.9800     0.0260    -2.7880 c3         1 26U      -0.032400
     13 C3          -4.1230     0.6110    -1.3580 c3         1 26U      -0.031400
     14 C4          -2.8920    -0.0060    -0.6460 c3         1 26U       0.049000
     15 N23         -2.4700     1.4240    -5.0220 ns         1 26U      -0.221900
     16 C24         -2.0470     2.6090    -5.7700 c3         1 26U       0.102300
     17 C25         -2.6920     2.6010    -7.1320 ca         1 26U      -0.053300
     18 C30         -2.0490     1.9900    -8.1940 ca         1 26U      -0.054500
     19 C29         -2.6370     1.9730    -9.4420 ca         1 26U      -0.074000
     20 C28         -3.8770     2.5830    -9.6340 ca         1 26U      -0.230900
     21 C21         -4.5100     2.5730   -10.9740 ce         1 26U       0.211800
     22 N46         -5.6680     3.1430   -11.1500 n2         1 26U      -0.488100
     23 N47         -3.8750     1.9620   -12.0320 nz         1 26U       0.190400
     24 C27         -4.5170     3.2000    -8.5610 ca         1 26U      -0.074000
     25 C26         -3.9220     3.2060    -7.3160 ca         1 26U      -0.054500
     26 H15         -0.3610    -0.8850     0.5100 hc         1 26U       0.033200
     27 H15A        -0.3610     0.8840     0.5110 hc         1 26U       0.033200
     28 H33          1.8910     0.8850    -0.5110 hc         1 26U       0.032200
     29 H33A         1.8910    -0.8840    -0.5110 hc         1 26U       0.032200
     30 H17          1.6070     0.8370     1.9780 hc         1 26U       0.023700
     31 H12          3.9230     0.1570     2.4660 hc         1 26U       0.003700
     32 H12A         3.8520     1.0370     0.9320 hc         1 26U       0.003700
     33 H12B         3.9980    -0.7270     0.9350 hc         1 26U       0.003700
     34 H49          2.3020    -1.5010     2.9570 hc         1 26U       0.003700
     35 H49A         0.6180    -1.2240     2.4920 hc         1 26U       0.003700
     36 H49B         1.6980    -2.1220     1.4150 hc         1 26U       0.003700
     37 H1          -2.1710    -0.8990    -3.5340 h1         1 26U       0.043700
     38 H2          -4.4550     0.6750    -3.5140 hc         1 26U       0.022700
     39 H2A         -4.3890    -0.9760    -2.8330 hc         1 26U       0.022700
     40 H3          -4.0580     1.6930    -1.3740 hc         1 26U       0.031200
     41 H3A         -5.0440     0.2770    -0.8940 hc         1 26U       0.031200
     42 H4          -2.6030     0.6030     0.2020 h1         1 26U       0.024700
     43 H4A         -3.1070    -1.0210    -0.3340 h1         1 26U       0.024700
     44 HN23        -3.0780     0.7530    -5.4490 hn         1 26U       0.173500
     45 H24         -0.9700     2.6010    -5.8800 h1         1 26U       0.042700
     46 H24A        -2.3480     3.5010    -5.2340 h1         1 26U       0.042700
     47 H30         -1.0860     1.5170    -8.0440 ha         1 26U       0.134000
     48 H29         -2.1330     1.4940   -10.2730 ha         1 26U       0.099000
     49 HN46        -6.1300     3.5880   -10.3810 hn         1 26U       0.381400
     50 HN47        -4.4390     2.0480   -12.8540 hn         1 26U       0.222133
     51 HN4A        -3.7360     0.9930   -11.8240 hn         1 26U       0.222133
     52 H27         -5.4800     3.6750    -8.7050 ha         1 26U       0.099000
     53 H26         -4.4180     3.6860    -6.4820 ha         1 26U       0.134000
     54 H473        -2.9890     2.4000   -12.1880 hn         1 26U       0.222133
@<TRIPOS>BOND
     1     1     2 1   
     2     1     6 1   
     3     1    26 1   
     4     1    27 1   
     5     2     3 1   
     6     2    28 1   
     7     2    29 1   
     8     3     4 1   
     9     3     5 1   
    10     3    30 1   
    11     4    31 1   
    12     4    32 1   
    13     4    33 1   
    14     5    34 1   
    15     5    35 1   
    16     5    36 1   
    17     6     7 2   
    18     6     8 1   
    19     8     9 1   
    20     8    14 1   
    21     9    10 1   
    22     9    12 1   
    23     9    37 1   
    24    10    11 2   
    25    10    15 1   
    26    12    13 1   
    27    12    38 1   
    28    12    39 1   
    29    13    14 1   
    30    13    40 1   
    31    13    41 1   
    32    14    42 1   
    33    14    43 1   
    34    15    16 1   
    35    15    44 1   
    36    16    17 1   
    37    16    45 1   
    38    16    46 1   
    39    17    18 ar  
    40    17    25 ar  
    41    18    19 ar  
    42    18    47 1   
    43    19    20 ar  
    44    19    48 1   
    45    20    21 1   
    46    20    24 ar  
    47    21    22 2   
    48    21    23 1   
    49    22    49 1   
    50    23    50 1   
    51    23    51 1   
    52    23    54 1   
    53    24    25 ar  
    54    24    52 1   
    55    25    53 1   
@<TRIPOS>SUBSTRUCTURE
     1 26U         1 TEMP              0 ****  ****    0 ROOT
