@<TRIPOS>MOLECULE
molecule
   42    44     1     0     0
SMALL
bcc


@<TRIPOS>ATOM
      1 N01          0.0000     0.0000     0.0000 nc         1 26Z      -0.785000
      2 N02         -1.9630    -0.0020     1.3310 nu         1 26Z      -0.730300
      3 N03          2.0700     0.0010    -1.1590 nv         1 26Z      -1.045500
      4 N04          2.5100    -1.6370     6.1360 nv         1 26Z      -0.916200
      5 N05         -6.3950    -2.0030    -3.1460 nz         1 26Z      -0.805500
      6 C06          1.8660     0.0000     1.2680 cd         1 26Z      -0.262000
      7 C07          1.3120     0.0000     0.0000 cc         1 26Z       0.729200
      8 C08         -0.5980    -0.0010     1.1570 cd         1 26Z       0.650300
      9 C09         -2.8090    -0.1430     0.2270 ca         1 26Z       0.267600
     10 C10          3.2400     0.0000     1.5720 c          1 26Z       0.620300
     11 C11          3.6850    -0.1500     2.9770 ca         1 26Z      -0.113600
     12 C12          4.9090     0.3850     3.3830 ca         1 26Z      -0.128000
     13 C13          5.3240     0.2440     4.6920 ca         1 26Z      -0.076000
     14 C14          4.5300    -0.4250     5.6050 ca         1 26Z      -0.187000
     15 C15          3.3090    -0.9610     5.2100 ca         1 26Z       0.205600
     16 C16          2.8820    -0.8190     3.8980 ca         1 26Z      -0.227000
     17 C17         -2.3690    -0.8160    -0.9050 ca         1 26Z      -0.168500
     18 C18         -3.2060    -0.9530    -1.9940 ca         1 26Z      -0.004500
     19 C19         -4.4830    -0.4200    -1.9590 ca         1 26Z      -0.379500
     20 C20         -4.9230     0.2520    -0.8330 ca         1 26Z      -0.004500
     21 C21         -4.0920     0.3870     0.2620 ca         1 26Z      -0.168500
     22 O22          4.0630     0.1230     0.6810 o          1 26Z      -0.505100
     23 O23         -4.7050    -0.7960    -4.4790 o          1 26Z      -0.524800
     24 O24         -6.4950     0.4600    -3.2670 o          1 26Z      -0.524800
     25 S25          0.5430    -0.0010     2.4300 ss         1 26Z      -0.088300
     26 S26         -5.5470    -0.5950    -3.3520 sy         1 26Z       1.222200
     27 HN02        -2.3500     0.0730     2.2510 hn         1 26Z       0.475800
     28 HN03         2.2810     0.8650    -1.6180 hn         1 26Z       0.451300
     29 HN0A         2.3730    -0.8650    -1.5600 hn         1 26Z       0.451300
     30 HN04         2.8180    -1.7380     7.0820 hn         1 26Z       0.432800
     31 HN0B         1.6260    -2.0120     5.8540 hn         1 26Z       0.432800
     32 HN05        -5.7570    -2.7710    -3.0890 hn         1 26Z       0.489133
     33 HN0C        -7.0120    -2.1380    -3.9220 hn         1 26Z       0.489133
     34 H12          5.5290     0.9190     2.6730 ha         1 26Z       0.153000
     35 H13          6.2740     0.6600     5.0060 ha         1 26Z       0.143000
     36 H14          4.8600    -0.5320     6.6310 ha         1 26Z       0.137000
     37 H16          2.2830    -1.6680     3.5930 ha         1 26Z       0.135000
     38 H17         -1.3700    -1.2340    -0.9330 ha         1 26Z       0.180500
     39 H18         -2.8640    -1.4780    -2.8780 ha         1 26Z       0.155000
     40 H20         -5.9240     0.6670    -0.8070 ha         1 26Z       0.155000
     41 H21         -4.4380     0.9130     1.1430 ha         1 26Z       0.180500
     42 H053        -6.9430    -1.9430    -2.3100 hn         1 26Z       0.489133
@<TRIPOS>BOND
     1     7     1 1
     2     1     8 2
     3     8     2 1
     4     2     9 1
     5     2    27 1
     6     3     7 1
     7     3    28 1
     8     3    29 1
     9    15     4 1
    10     4    30 1
    11     4    31 1
    12    26     5 1
    13     5    32 1
    14     5    33 1
    15     7     6 2
    16    10     6 1
    17     6    25 1
    18     8    25 1
    19     9    21 ar
    20     9    17 ar
    21    22    10 2
    22    10    11 1
    23    11    12 ar
    24    11    16 ar
    25    12    13 ar
    26    12    34 1
    27    13    14 ar
    28    13    35 1
    29    15    14 ar
    30    14    36 1
    31    16    15 ar
    32    16    37 1
    33    17    18 ar
    34    17    38 1
    35    18    19 ar
    36    18    39 1
    37    20    19 ar
    38    19    26 1
    39    21    20 ar
    40    20    40 1
    41    21    41 1
    42    23    26 2
    43    26    24 2
    44    42     5 1
@<TRIPOS>SUBSTRUCTURE
     1 26Z         1 TEMP              0 ****  ****    0 ROOT
