@<TRIPOS>MOLECULE
26Z
   42    44     1     0     0
SMALL
bcc


@<TRIPOS>ATOM
      1 N01          0.0000     0.0000     0.0000 nc         1 26Z      -0.657000
      2 N02         -1.9630    -0.0020     1.3310 nu         1 26Z      -0.231300
      3 N03          2.0700     0.0010    -1.1590 nv         1 26Z      -0.608500
      4 N04          2.5100    -1.6370     6.1360 nv         1 26Z      -0.436200
      5 N05         -6.3950    -2.0030    -3.1460 nz         1 26Z      -0.134500
      6 C06          1.8660     0.0000     1.2680 cd         1 26Z      -0.206000
      7 C07          1.3120     0.0000     0.0000 cc         1 26Z       0.553200
      8 C08         -0.5980    -0.0010     1.1570 cd         1 26Z       0.488300
      9 C09         -2.8090    -0.1430     0.2270 ca         1 26Z       0.099600
     10 C10          3.2400     0.0000     1.5720 c          1 26Z       0.676300
     11 C11          3.6850    -0.1500     2.9770 ca         1 26Z      -0.116600
     12 C12          4.9090     0.3850     3.3830 ca         1 26Z      -0.102000
     13 C13          5.3240     0.2440     4.6920 ca         1 26Z      -0.044000
     14 C14          4.5300    -0.4250     5.6050 ca         1 26Z      -0.162000
     15 C15          3.3090    -0.9610     5.2100 ca         1 26Z       0.051600
     16 C16          2.8820    -0.8190     3.8980 ca         1 26Z      -0.201000
     17 C17         -2.3690    -0.8160    -0.9050 ca         1 26Z      -0.158000
     18 C18         -3.2060    -0.9530    -1.9940 ca         1 26Z       0.042000
     19 C19         -4.4830    -0.4200    -1.9590 ca         1 26Z      -0.269500
     20 C20         -4.9230     0.2520    -0.8330 ca         1 26Z       0.042000
     21 C21         -4.0920     0.3870     0.2620 ca         1 26Z      -0.158000
     22 O22          4.0630     0.1230     0.6810 o          1 26Z      -0.543100
     23 O23         -4.7050    -0.7960    -4.4790 o          1 26Z      -0.499300
     24 O24         -6.4950     0.4600    -3.2670 o          1 26Z      -0.499300
     25 S25          0.5430    -0.0010     2.4300 ss         1 26Z      -0.219300
     26 S26         -5.5470    -0.5950    -3.3520 sy         1 26Z       0.931200
     27 HN02        -2.3500     0.0730     2.2510 hn         1 26Z       0.300800
     28 HN03         2.2810     0.8650    -1.6180 hn         1 26Z       0.287800
     29 HN0A         2.3730    -0.8650    -1.5600 hn         1 26Z       0.287800
     30 HN04         2.8180    -1.7380     7.0820 hn         1 26Z       0.267800
     31 HN0B         1.6260    -2.0120     5.8540 hn         1 26Z       0.267800
     32 HN05        -5.7570    -2.7710    -3.0890 hn         1 26Z       0.311467
     33 HN0C        -7.0120    -2.1380    -3.9220 hn         1 26Z       0.311467
     34 H12          5.5290     0.9190     2.6730 ha         1 26Z       0.124000
     35 H13          6.2740     0.6600     5.0060 ha         1 26Z       0.108000
     36 H14          4.8600    -0.5320     6.6310 ha         1 26Z       0.113000
     37 H16          2.2830    -1.6680     3.5930 ha         1 26Z       0.121000
     38 H17         -1.3700    -1.2340    -0.9330 ha         1 26Z       0.151000
     39 H18         -2.8640    -1.4780    -2.8780 ha         1 26Z       0.122000
     40 H20         -5.9240     0.6670    -0.8070 ha         1 26Z       0.122000
     41 H21         -4.4380     0.9130     1.1430 ha         1 26Z       0.151000
     42 H053        -6.9430    -1.9430    -2.3100 hn         1 26Z       0.311467
@<TRIPOS>BOND
     1     1     7 1   
     2     1     8 2   
     3     2     8 1   
     4     2     9 1   
     5     2    27 1   
     6     3     7 1   
     7     3    28 1   
     8     3    29 1   
     9     4    15 1   
    10     4    30 1   
    11     4    31 1   
    12     5    26 1   
    13     5    32 1   
    14     5    33 1   
    15     5    42 1   
    16     6     7 2   
    17     6    10 1   
    18     6    25 1   
    19     8    25 1   
    20     9    17 ar  
    21     9    21 ar  
    22    10    11 1   
    23    10    22 2   
    24    11    12 ar  
    25    11    16 ar  
    26    12    13 ar  
    27    12    34 1   
    28    13    14 ar  
    29    13    35 1   
    30    14    15 ar  
    31    14    36 1   
    32    15    16 ar  
    33    16    37 1   
    34    17    18 ar  
    35    17    38 1   
    36    18    19 ar  
    37    18    39 1   
    38    19    20 ar  
    39    19    26 1   
    40    20    21 ar  
    41    20    40 1   
    42    21    41 1   
    43    23    26 2   
    44    24    26 2   
@<TRIPOS>SUBSTRUCTURE
     1 26Z         1 TEMP              0 ****  ****    0 ROOT
