@<TRIPOS>MOLECULE
270
   18    19     1     0     0
SMALL
bcc


@<TRIPOS>ATOM
      1 N1         -0.0820   -0.1290    0.0160 n2        1 270     -0.279200
      2 C1          1.4280   -0.0900    0.0550 c3        1 270      0.403900
      3 C2         -0.4520   -0.0590    1.2720 ca        1 270      0.033000
      4 C3         -1.7610    0.0230    1.8810 ca        1 270     -0.129000
      5 C4         -1.8570    0.0880    3.2280 ca        1 270     -0.062000
      6 C5         -0.6960    0.0880    4.0980 ca        1 270     -0.062000
      7 C6          0.5700    0.0230    3.6280 ca        1 270     -0.129000
      8 C7          0.7870   -0.0590    2.2010 ca        1 270      0.033000
      9 N3          1.8890   -0.1290    1.4940 n2        1 270     -0.279200
     10 N2          2.0550   -1.1890   -0.7820 nz        1 270     -0.824600
     11 H1          1.7700    0.8970   -0.4010 hx        1 270      0.161700
     12 H3         -2.6440    0.0330    1.2200 ha        1 270      0.184000
     13 H4         -2.8470    0.1490    3.7150 ha        1 270      0.175000
     14 H5         -0.8860    0.1490    5.1850 ha        1 270      0.175000
     15 H6          1.4520    0.0330    4.2910 ha        1 270      0.184000
     16 H21         1.7920   -2.1150   -0.4310 hn        1 270      0.471133
     17 H22         3.0760   -1.0930   -0.7420 hn        1 270      0.471133
     18 H23         1.7310   -1.0920   -1.7510 hn        1 270      0.471133
@<TRIPOS>BOND
     1    1    2 1   
     2    1    3 2   
     3    2    9 1   
     4    2   10 1   
     5    2   11 1   
     6    3    4 ar  
     7    3    8 ar  
     8    4    5 ar  
     9    4   12 1   
    10    5    6 ar  
    11    5   13 1   
    12    6    7 ar  
    13    6   14 1   
    14    7    8 ar  
    15    7   15 1   
    16    8    9 2   
    17   10   16 1   
    18   10   17 1   
    19   10   18 1   
@<TRIPOS>SUBSTRUCTURE
     1 270         1 TEMP              0 ****  ****    0 ROOT
