@<TRIPOS>MOLECULE
molecule
   20    20     1     0     0
SMALL
bcc


@<TRIPOS>ATOM
      1 N03          0.0000     0.0000     0.0000 n7         1 271      -0.815200
      2 C04          1.4690     0.0000     0.0000 c3         1 271       0.146100
      3 C23         -0.5260     0.0000     1.3710 c3         1 271       0.202100
      4 C24         -2.0330     0.0000     1.3310 ca         1 271      -0.086300
      5 C25         -2.7240    -1.1970     1.3120 ca         1 271      -0.115000
      6 C26         -4.1060    -1.1970     1.2750 ca         1 271      -0.129500
      7 C27         -4.7960     0.0010     1.2570 ca         1 271      -0.127000
      8 C28         -4.1060     1.1980     1.2760 ca         1 271      -0.129500
      9 C29         -2.7240     1.1980     1.3180 ca         1 271      -0.115000
     10 H03         -0.3340     0.8090    -0.4850 hn         1 271       0.354800
     11 H041         1.8300    -0.0060    -1.0210 h1         1 271       0.030367
     12 H042         1.8300     0.8880     0.5050 h1         1 271       0.030367
     13 H043         1.8300    -0.8810     0.5160 h1         1 271       0.030367
     14 H231        -0.1780     0.8840     1.8920 h1         1 271       0.037200
     15 H232        -0.1790    -0.8850     1.8910 h1         1 271       0.037200
     16 H25         -2.1820    -2.1350     1.3260 ha         1 271       0.130500
     17 H26         -4.6480    -2.1350     1.2600 ha         1 271       0.129000
     18 H27         -5.8790     0.0010     1.2260 ha         1 271       0.128000
     19 H28         -4.6470     2.1360     1.2640 ha         1 271       0.129000
     20 H29         -2.1830     2.1360     1.3330 ha         1 271       0.130500
@<TRIPOS>BOND
     1     1     2 1   
     2     1     3 1   
     3     3     4 1   
     4     4     5 ar  
     5     4     9 ar  
     6     5     6 ar  
     7     6     7 ar  
     8     7     8 ar  
     9     8     9 ar  
    10     1    10 1   
    11     2    11 1   
    12     2    12 1   
    13     2    13 1   
    14     3    14 1   
    15     3    15 1   
    16     5    16 1   
    17     6    17 1   
    18     7    18 1   
    19     8    19 1   
    20     9    20 1   
@<TRIPOS>SUBSTRUCTURE
     1 271         1 TEMP              0 ****  ****    0 ROOT
