@<TRIPOS>MOLECULE
272
   27    29     1     0     0
SMALL
bcc


@<TRIPOS>ATOM
      1 C1         -0.0310   -0.0770   -0.0310 ca        1 272      0.160100
      2 C2          1.3730   -0.0540   -0.0230 ca        1 272     -0.214000
      3 C3          1.9550   -0.0490    1.2350 ca        1 272      0.085100
      4 C4          1.2090   -0.0630    2.4530 ca        1 272     -0.251900
      5 C5         -0.1810   -0.0890    2.4020 ca        1 272     -0.030000
      6 C6         -0.7990   -0.0950    1.1570 ca        1 272     -0.180000
      7 O10         3.3240   -0.0330    1.5630 os        1 272     -0.012600
      8 N11         3.4580   -0.0360    2.8860 nc        1 272     -0.374200
      9 C12         2.2560   -0.0580    3.4870 cd        1 272      0.443500
     10 C13         2.0090   -0.0570    4.9180 ca        1 272     -0.178900
     11 C14         2.6980   -0.9190    5.7980 ca        1 272      0.201100
     12 C15         2.4480   -0.8890    7.1790 ca        1 272     -0.312000
     13 C16         1.4990    0.0110    7.6750 ca        1 272      0.179100
     14 C17         0.7950    0.8720    6.8140 ca        1 272     -0.197000
     15 C18         1.0580    0.8260    5.4520 ca        1 272     -0.043000
     16 O22         1.1990    0.1030    9.0110 oh        1 272     -0.490100
     17 O23         3.5960   -1.8000    5.2530 oh        1 272     -0.473100
     18 O24        -0.7500   -0.0830   -1.2020 oh        1 272     -0.491100
     19 H2          1.9680   -0.0430   -0.9440 ha        1 272      0.159000
     20 H5         -0.7780   -0.1060    3.3250 ha        1 272      0.148000
     21 H6         -1.8950   -0.1150    1.0730 ha        1 272      0.157000
     22 H15         2.9910   -1.5620    7.8550 ha        1 272      0.140000
     23 H17         0.0540    1.5690    7.2300 ha        1 272      0.157000
     24 H18         0.5150    1.4990    4.7690 ha        1 272      0.146000
     25 H22         1.7530   -0.5300    9.4910 ho        1 272      0.423000
     26 H23         4.0220   -2.2840    5.9760 ho        1 272      0.423000
     27 H24        -0.1240   -0.0750   -1.9420 ho        1 272      0.425000
@<TRIPOS>BOND
     1    1    2 ar  
     2    1    6 ar  
     3    1   18 1   
     4    2    3 ar  
     5    2   19 1   
     6    3    4 ar  
     7    3    7 1   
     8    4    5 ar  
     9    4    9 1   
    10    5    6 ar  
    11    5   20 1   
    12    6   21 1   
    13    7    8 1   
    14    8    9 2   
    15    9   10 1   
    16   10   11 ar  
    17   10   15 ar  
    18   11   12 ar  
    19   11   17 1   
    20   12   13 ar  
    21   12   22 1   
    22   13   14 ar  
    23   13   16 1   
    24   14   15 ar  
    25   14   23 1   
    26   15   24 1   
    27   16   25 1   
    28   17   26 1   
    29   18   27 1   
@<TRIPOS>SUBSTRUCTURE
     1 272         1 TEMP              0 ****  ****    0 ROOT
