@<TRIPOS>MOLECULE
273
   21    21     1     0     0
SMALL
bcc


@<TRIPOS>ATOM
      1 C1           0.0000     0.0000     0.0000 c3         1 273      -0.022900
      2 C2           1.5390     0.0000     0.0000 c3         1 273      -0.016900
      3 C3           1.9800     0.0000     1.4770 c3         1 273      -0.016900
      4 C4           0.7700    -0.6010     2.2350 c3         1 273      -0.022900
      5 C5          -0.4410     0.0010     1.4790 c3         1 273      -0.118000
      6 C6          -1.6610    -0.8630     1.6660 c2         1 273       0.124200
      7 N7          -2.9110    -0.3250     1.5090 nz         1 273       0.194400
      8 N8          -1.5280    -2.1120     1.9760 n2         1 273      -0.470100
      9 H11         -0.3700     0.8890    -0.4960 hc         1 273       0.025450
     10 H12         -0.3700    -0.8900    -0.4960 hc         1 273       0.025450
     11 H21          1.9080     0.8890    -0.4960 hc         1 273       0.035700
     12 H22          1.9080    -0.8890    -0.4960 hc         1 273       0.035700
     13 H31          2.8560    -0.6230     1.6100 hc         1 273       0.035700
     14 H32          2.1720     1.0120     1.8140 hc         1 273       0.035700
     15 H41          0.7710    -0.2820     3.2700 hc         1 273       0.025450
     16 H42          0.7700    -1.6820     2.1590 hc         1 273       0.025450
     17 H5          -0.6300     1.0130     1.8150 hc         1 273       0.053700
     18 H71         -3.0240    -0.0110     0.5650 hn         1 273       0.219800
     19 H72         -3.6020    -1.0210     1.7130 hn         1 273       0.219800
     20 H8          -0.6160    -2.5070     2.0910 hn         1 273       0.391400
     21 H73         -3.0230     0.4490     2.1340 hn         1 273       0.219800
@<TRIPOS>BOND
     1     1     2 1   
     2     1     5 1   
     3     1     9 1   
     4     1    10 1   
     5     2     3 1   
     6     2    11 1   
     7     2    12 1   
     8     3     4 1   
     9     3    13 1   
    10     3    14 1   
    11     4     5 1   
    12     4    15 1   
    13     4    16 1   
    14     5     6 1   
    15     5    17 1   
    16     6     7 1   
    17     6     8 2   
    18     7    18 1   
    19     7    19 1   
    20     7    21 1   
    21     8    20 1   
@<TRIPOS>SUBSTRUCTURE
     1 273         1 TEMP              0 ****  ****    0 ROOT
