@<TRIPOS>MOLECULE
molecule
   69    73     1     0     0
SMALL
bcc


@<TRIPOS>ATOM
      1 C22          0.0000     0.0000     0.0000 c          1 274       0.722700
      2 O4           1.2320     0.0000     0.0000 o          1 274      -0.593100
      3 C19         -0.7100     0.0000     1.2730 cc         1 274      -0.207600
      4 C18         -1.1330    -1.1160     2.0330 cc         1 274      -0.067300
      5 C21         -0.9380    -2.5390     1.6850 c3         1 274      -0.024800
      6 C20         -1.0900     1.1350     1.9540 cd         1 274      -0.062600
      7 C23         -0.9150     2.5660     1.6380 c3         1 274      -0.033800
      8 N3          -1.7290     0.7390     3.1000 na         1 274      -0.153100
      9 C17         -1.7610    -0.6310     3.1590 cd         1 274      -0.124100
     10 C16         -2.3800    -1.2270     4.2680 cf         1 274       0.019800
     11 C14         -3.6830    -1.5910     4.3420 cc         1 274      -0.131400
     12 C12         -4.3910    -2.2130     5.4550 ca         1 274      -0.132800
     13 C9          -4.0100    -2.6110     6.7220 ca         1 274       0.042000
     14 C15         -4.6550    -1.4000     3.2140 c          1 274       0.714700
     15 O3          -4.4220    -0.9120     2.1240 o          1 274      -0.562500
     16 N2          -5.8600    -1.9080     3.7120 ns         1 274      -0.487100
     17 C13         -5.7090    -2.3820     5.0200 ca         1 274       0.131600
     18 C11         -6.6840    -2.9480     5.8170 ca         1 274      -0.195000
     19 C10         -6.3070    -3.3540     7.0990 ca         1 274       0.012000
     20 C8          -4.9830    -3.1870     7.5480 ca         1 274      -0.353500
     21 S1          -4.5490    -3.7080     9.1590 sy         1 274       1.262200
     22 O1          -3.3940    -2.9250     9.5880 o          1 274      -0.588300
     23 O2          -5.7530    -3.6710     9.9820 o          1 274      -0.588300
     24 N1          -4.0510    -5.3590     8.9430 nh         1 274      -0.592900
     25 C7          -5.1200    -6.3910     8.9060 c3         1 274       0.198100
     26 C3          -2.9270    -5.5670     8.0500 ca         1 274       0.099600
     27 C1          -3.1510    -5.6370     6.6860 ca         1 274      -0.143000
     28 C2          -2.0690    -5.8380     5.8280 ca         1 274       0.025400
     29 Cl1         -2.3240    -5.9260     4.1280 cl         1 274      -0.092400
     30 C4          -0.7820    -5.9660     6.3480 ca         1 274      -0.117000
     31 C5          -0.5740    -5.8940     7.7260 ca         1 274      -0.116000
     32 C6          -1.6560    -5.6930     8.5830 ca         1 274      -0.087000
     33 C24         -0.1160    -0.0020    -2.4760 c3         1 274       0.106500
     34 C27         -0.7130    -1.0620    -3.3990 c3         1 274       0.144300
     35 N5          -2.1680    -0.8900    -3.5130 n3         1 274      -0.724600
     36 C28         -2.7330    -1.8790    -4.4300 c3         1 274       0.151100
     37 C26         -2.8010    -0.9910    -2.1900 c3         1 274       0.144300
     38 C25         -2.2410     0.0600    -1.2280 c3         1 274       0.106500
     39 N4          -0.7760    -0.0010    -1.1700 n          1 274      -0.503800
     40 H211        -1.8570    -2.9390     1.2740 hc         1 274       0.045367
     41 H212        -0.6670    -3.0940     2.5740 hc         1 274       0.045367
     42 H213        -0.1460    -2.6250     0.9500 hc         1 274       0.045367
     43 H231        -0.7310     3.1170     2.5520 hc         1 274       0.054367
     44 H232        -1.8120     2.9430     1.1630 hc         1 274       0.054367
     45 H233        -0.0730     2.6870     0.9680 hc         1 274       0.054367
     46 H3          -2.1130     1.3550     3.7890 hn         1 274       0.298700
     47 H16         -1.7550    -1.4080     5.1350 ha         1 274       0.138000
     48 H9          -2.9910    -2.4820     7.0660 ha         1 274       0.163000
     49 H2          -6.7190    -1.9280     3.1990 hn         1 274       0.342500
     50 H11         -7.7000    -3.0720     5.4630 ha         1 274       0.149000
     51 H10         -7.0420    -3.8020     7.7570 ha         1 274       0.155000
     52 H7C1        -4.6690    -7.3760     8.8860 h1         1 274       0.050700
     53 H7C2        -5.7430    -6.2970     9.7860 h1         1 274       0.050700
     54 H7C3        -5.7250    -6.2530     8.0180 h1         1 274       0.050700
     55 H1          -4.1630    -5.7050     6.3060 ha         1 274       0.151000
     56 H6          -1.5030    -5.6360     9.6540 ha         1 274       0.159000
     57 H4           0.0580    -6.1220     5.6820 ha         1 274       0.150000
     58 H5           0.4260    -5.9940     8.1290 ha         1 274       0.147000
     59 H241         0.9390    -0.2070    -2.3380 h1         1 274       0.059700
     60 H242        -0.2360     0.9720    -2.9330 h1         1 274       0.059700
     61 H271        -0.5020    -2.0460    -2.9960 h1         1 274       0.040200
     62 H272        -0.2660    -0.9700    -4.3820 h1         1 274       0.040200
     63 H281        -2.2700    -1.7750    -5.4030 h1         1 274       0.031700
     64 H282        -2.5480    -2.8750    -4.0460 h1         1 274       0.031700
     65 H283        -3.8010    -1.7190    -4.5200 h1         1 274       0.031700
     66 H261        -2.6140    -1.9780    -1.7830 h1         1 274       0.040200
     67 H262        -3.8680    -0.8410    -2.2960 h1         1 274       0.040200
     68 H251        -2.5410     1.0440    -1.5670 h1         1 274       0.059700
     69 H252        -2.6420    -0.1170    -0.2380 h1         1 274       0.059700
@<TRIPOS>BOND
     1     1     2 2
     2     1     3 1
     3     1    39 1
     4     3     4 1
     5     3     6 2
     6     4     5 1
     7     4     9 2
     8     5    40 1
     9     5    41 1
    10     5    42 1
    11     6     7 1
    12     6     8 1
    13     7    43 1
    14     7    44 1
    15     7    45 1
    16     8     9 1
    17     8    46 1
    18     9    10 1
    19    10    11 2
    20    10    47 1
    21    11    12 1
    22    11    14 1
    23    12    13 ar
    24    12    17 ar
    25    13    20 ar
    26    13    48 1
    27    14    15 2
    28    14    16 1
    29    16    17 1
    30    16    49 1
    31    17    18 ar
    32    18    19 ar
    33    18    50 1
    34    19    20 ar
    35    19    51 1
    36    20    21 1
    37    21    22 2
    38    21    23 2
    39    21    24 1
    40    24    25 1
    41    24    26 1
    42    25    52 1
    43    25    53 1
    44    25    54 1
    45    26    27 ar
    46    26    32 ar
    47    27    28 ar
    48    27    55 1
    49    28    29 1
    50    28    30 ar
    51    30    31 ar
    52    30    57 1
    53    31    32 ar
    54    31    58 1
    55    32    56 1
    56    33    34 1
    57    33    39 1
    58    33    59 1
    59    33    60 1
    60    34    35 1
    61    34    61 1
    62    34    62 1
    63    35    36 1
    64    35    37 1
    65    36    63 1
    66    36    64 1
    67    36    65 1
    68    37    38 1
    69    37    66 1
    70    37    67 1
    71    38    39 1
    72    38    68 1
    73    38    69 1
@<TRIPOS>SUBSTRUCTURE
     1 274         1 TEMP              0 ****  ****    0 ROOT
