@<TRIPOS>MOLECULE
275
   20    20     1     0     0
SMALL
bcc


@<TRIPOS>ATOM
      1 C1           0.0000     0.0000     0.0000 c3         1 275       0.056200
      2 C2           1.5070     0.0000     0.0000 ca         1 275      -0.252600
      3 C3           2.1880     0.0000     1.2030 ca         1 275      -0.035000
      4 C4           3.5740    -0.0010     1.1970 ca         1 275      -0.038000
      5 C5           4.2290    -0.0010    -0.0320 ca         1 275       0.098600
      6 N6           5.6260    -0.0020    -0.0900 nv         1 275      -0.542200
      7 C7           3.4740    -0.0010    -1.1990 ca         1 275      -0.291300
      8 N8           2.1580    -0.0060    -1.1460 na         1 275       0.684900
      9 C9           1.3950    -0.0110    -2.3980 c3         1 275      -0.101400
     10 H11         -0.3610    -0.8880    -0.5040 hc         1 275       0.041700
     11 H12         -0.3610     0.8810    -0.5170 hc         1 275       0.041700
     12 H13         -0.3610     0.0070     1.0210 hc         1 275       0.041700
     13 H3           1.6440     0.0000     2.1400 ha         1 275       0.153000
     14 H4           4.1330    -0.0010     2.1240 ha         1 275       0.152000
     15 H61          6.1250    -0.8690    -0.1140 hn         1 275       0.307800
     16 H62          6.1260     0.8640    -0.1150 hn         1 275       0.307800
     17 H7           3.9730    -0.0040    -2.1600 h4         1 275       0.177000
     18 H91          2.0800    -0.0170    -3.2380 h1         1 275       0.065700
     19 H92          0.7730     0.8750    -2.4460 h1         1 275       0.065700
     20 H93          0.7690    -0.8940    -2.4360 h1         1 275       0.065700
@<TRIPOS>BOND
     1     1     2 1   
     2     1    10 1   
     3     1    11 1   
     4     1    12 1   
     5     2     3 ar  
     6     2     8 2   
     7     3     4 ar  
     8     3    13 1   
     9     4     5 ar  
    10     4    14 1   
    11     5     6 1   
    12     5     7 ar  
    13     6    15 1   
    14     6    16 1   
    15     7     8 1   
    16     7    17 1   
    17     8     9 1   
    18     9    18 1   
    19     9    19 1   
    20     9    20 1   
@<TRIPOS>SUBSTRUCTURE
     1 275         1 TEMP              0 ****  ****    0 ROOT
