@<TRIPOS>MOLECULE
molecule
   20    20     1     0     0
SMALL
bcc


@<TRIPOS>ATOM
      1 C1           0.0000     0.0000     0.0000 c3         1 275      -0.069800
      2 C2           1.5070     0.0000     0.0000 ca         1 275      -0.008600
      3 C3           2.1880     0.0000     1.2030 ca         1 275      -0.127000
      4 C4           3.5740    -0.0010     1.1970 ca         1 275      -0.038000
      5 C5           4.2290    -0.0010    -0.0320 ca         1 275       0.172600
      6 N6           5.6260    -0.0020    -0.0900 nv         1 275      -0.973200
      7 C7           3.4740    -0.0010    -1.1990 ca         1 275      -0.074300
      8 N8           2.1580    -0.0060    -1.1460 na         1 275       0.077900
      9 C9           1.3950    -0.0110    -2.3980 c3         1 275      -0.022400
     10 H11         -0.3610    -0.8880    -0.5040 hc         1 275       0.085700
     11 H12         -0.3610     0.8810    -0.5170 hc         1 275       0.085700
     12 H13         -0.3610     0.0070     1.0210 hc         1 275       0.085700
     13 H3           1.6440     0.0000     2.1400 ha         1 275       0.194000
     14 H4           4.1330    -0.0010     2.1240 ha         1 275       0.193000
     15 H61          6.1250    -0.8690    -0.1140 hn         1 275       0.462800
     16 H62          6.1260     0.8640    -0.1150 hn         1 275       0.462800
     17 H7           3.9730    -0.0040    -2.1600 h4         1 275       0.208000
     18 H91          2.0800    -0.0170    -3.2380 h1         1 275       0.095367
     19 H92          0.7730     0.8750    -2.4460 h1         1 275       0.095367
     20 H93          0.7690    -0.8940    -2.4360 h1         1 275       0.095367
@<TRIPOS>BOND
     1     1     2 1   
     2     2     3 ar  
     3     2     8 2   
     4     3     4 ar  
     5     4     5 ar  
     6     5     6 1   
     7     5     7 ar  
     8     7     8 1   
     9     8     9 1   
    10     1    10 1   
    11     1    11 1   
    12     1    12 1   
    13     3    13 1   
    14     4    14 1   
    15     6    15 1   
    16     6    16 1   
    17     7    17 1   
    18     9    18 1   
    19     9    19 1   
    20     9    20 1   
@<TRIPOS>SUBSTRUCTURE
     1 275         1 TEMP              0 ****  ****    0 ROOT
