@<TRIPOS>MOLECULE
molecule
   47    50     1     0     0
SMALL
bcc


@<TRIPOS>ATOM
      1 C1           0.0000     0.0000     0.0000 ca         1 276      -0.320300
      2 C2           1.3820     0.0000     0.0000 ca         1 276       0.446200
      3 N3           2.0590     0.0000     1.1290 nb         1 276      -0.716000
      4 C4           1.4520     0.0010     2.3090 ca         1 276       0.401800
      5 C5           0.0630    -0.0000     2.3910 ca         1 276      -0.218300
      6 C6          -0.6820     0.0010     1.2140 ca         1 276       0.159100
      7 C10          2.2600    -0.0000     3.5520 c          1 276       0.574600
      8 O11          1.7090    -0.0000     4.6350 o          1 276      -0.605100
      9 N12          3.6060    -0.0000     3.4800 ns         1 276      -0.568900
     10 C13          4.4050    -0.0010     4.7080 c3         1 276       0.102300
     11 O17         -2.0380     0.0060     1.2500 os         1 276      -0.233200
     12 C18         -2.7080     0.0920     0.0700 ca         1 276       0.096100
     13 C19         -2.8460    -1.0300    -0.7280 ca         1 276      -0.139000
     14 C20         -3.5290    -0.9420    -1.9300 ca         1 276      -0.088200
     15 C21         -4.0790     0.2850    -2.3370 ca         1 276       0.124400
     16 C22         -3.9320     1.4110    -1.5220 ca         1 276      -0.075000
     17 C23         -3.2560     1.3080    -0.3280 ca         1 276      -0.135000
     18 N27         -3.8350    -1.8520    -2.9290 na         1 276      -0.290300
     19 C28         -4.5400    -1.1790    -3.8880 cc         1 276       0.668700
     20 N29         -4.6820     0.0750    -3.5380 nd         1 276      -0.660100
     21 N32         -5.0290    -1.7380    -5.0520 nu         1 276      -0.725600
     22 C33         -5.6890    -0.9370    -5.9890 ca         1 276       0.161600
     23 C34         -5.6260    -1.2510    -7.3410 ca         1 276      -0.120000
     24 C35         -6.2780    -0.4590    -8.2640 ca         1 276      -0.156300
     25 C36         -6.9940     0.6490    -7.8450 ca         1 276       0.047400
     26 C37         -7.0580     0.9660    -6.4990 ca         1 276      -0.106000
     27 C38         -6.4130     0.1730    -5.5700 ca         1 276      -0.100000
     28 C43         -6.2100    -0.7990    -9.7300 c3         1 276       0.678200
     29 Cl44        -7.8120     1.6430    -9.0090 cl         1 276      -0.079400
     30 F45         -5.4350    -1.9510    -9.9060 f          1 276      -0.218300
     31 F46         -7.5020    -1.0270   -10.2170 f          1 276      -0.218300
     32 F47         -5.6290     0.2640   -10.4300 f          1 276      -0.218300
     33 H1          -0.5470     0.0000    -0.9350 ha         1 276       0.155000
     34 H2           1.9160    -0.0010    -0.9430 h4         1 276       0.027100
     35 H5          -0.4320     0.0000     3.3550 ha         1 276       0.178000
     36 HN12         4.0590    -0.0390     2.5880 hn         1 276       0.334500
     37 H131         5.4580     0.0020     4.4550 h1         1 276       0.042700
     38 H132         4.1720     0.8820     5.2910 h1         1 276       0.042700
     39 H133         4.1750    -0.8870     5.2880 h1         1 276       0.042700
     40 H19         -2.5000    -1.9930    -0.3720 ha         1 276       0.144000
     41 H22         -4.3560     2.3600    -1.8260 ha         1 276       0.152000
     42 H23         -3.1550     2.1780     0.3090 ha         1 276       0.152000
     43 HN27        -3.5860    -2.8210    -2.9460 hn         1 276       0.305700
     44 HN32        -4.9320    -2.7210    -5.2130 hn         1 276       0.458800
     45 H34         -5.0660    -2.1180    -7.6700 ha         1 276       0.154000
     46 H37         -7.6210     1.8320    -6.1730 ha         1 276       0.157000
     47 H38         -6.4630     0.4210    -4.5170 ha         1 276       0.188000
@<TRIPOS>BOND
     1    10     9 1   
     2     9     7 1   
     3     7     8 2   
     4     7     4 1   
     5     3     4 ar  
     6     3     2 ar  
     7     4     5 ar  
     8     2     1 ar  
     9     5     6 ar  
    10     1     6 ar  
    11     6    11 1   
    12    11    12 1   
    13    13    12 ar  
    14    13    14 ar  
    15    12    17 ar  
    16    26    27 ar  
    17    26    25 ar  
    18    29    25 1   
    19    14    18 1   
    20    14    15 ar  
    21    27    22 ar  
    22    18    19 1   
    23    17    16 ar  
    24    25    24 ar  
    25    15    16 ar  
    26    15    20 1   
    27    19    21 1   
    28    19    20 2   
    29    22    21 1   
    30    22    23 ar  
    31    24    23 ar  
    32    24    28 1   
    33    31    28 1   
    34    28    30 1   
    35    28    32 1   
    36     1    33 1   
    37     2    34 1   
    38     5    35 1   
    39     9    36 1   
    40    10    37 1   
    41    10    38 1   
    42    10    39 1   
    43    13    40 1   
    44    16    41 1   
    45    17    42 1   
    46    18    43 1   
    47    21    44 1   
    48    23    45 1   
    49    26    46 1   
    50    27    47 1   
@<TRIPOS>SUBSTRUCTURE
     1 276         1 TEMP              0 ****  ****    0 ROOT
