@<TRIPOS>MOLECULE
276
   47    50     1     0     0
SMALL
bcc


@<TRIPOS>ATOM
      1 C1           0.0000     0.0000     0.0000 ca         1 276      -0.309300
      2 C2           1.3820     0.0000     0.0000 ca         1 276       0.436200
      3 N3           2.0590     0.0000     1.1290 nb         1 276      -0.611000
      4 C4           1.4520     0.0010     2.3090 ca         1 276       0.352800
      5 C5           0.0630    -0.0000     2.3910 ca         1 276      -0.193300
      6 C6          -0.6820     0.0010     1.2140 ca         1 276       0.164100
      7 C10          2.2600    -0.0000     3.5520 c          1 276       0.480600
      8 O11          1.7090    -0.0000     4.6350 o          1 276      -0.651100
      9 N12          3.6060    -0.0000     3.4800 ns         1 276      -0.172900
     10 C13          4.4050    -0.0010     4.7080 c3         1 276       0.082300
     11 O17         -2.0380     0.0060     1.2500 os         1 276      -0.206200
     12 C18         -2.7080     0.0920     0.0700 ca         1 276       0.097100
     13 C19         -2.8460    -1.0300    -0.7280 ca         1 276      -0.107000
     14 C20         -3.5290    -0.9420    -1.9300 ca         1 276      -0.263200
     15 C21         -4.0790     0.2850    -2.3370 ca         1 276       0.096400
     16 C22         -3.9320     1.4110    -1.5220 ca         1 276      -0.038000
     17 C23         -3.2560     1.3080    -0.3280 ca         1 276      -0.116000
     18 N27         -3.8350    -1.8520    -2.9290 na         1 276       0.230700
     19 C28         -4.5400    -1.1790    -3.8880 cc         1 276       0.313700
     20 N29         -4.6820     0.0750    -3.5380 nd         1 276      -0.585100
     21 N32         -5.0290    -1.7380    -5.0520 nu         1 276      -0.251600
     22 C33         -5.6890    -0.9370    -5.9890 ca         1 276       0.001600
     23 C34         -5.6260    -1.2510    -7.3410 ca         1 276      -0.084000
     24 C35         -6.2780    -0.4590    -8.2640 ca         1 276      -0.186300
     25 C36         -6.9940     0.6490    -7.8450 ca         1 276      -0.011600
     26 C37         -7.0580     0.9660    -6.4990 ca         1 276      -0.079000
     27 C38         -6.4130     0.1730    -5.5700 ca         1 276      -0.079000
     28 C43         -6.2100    -0.7990    -9.7300 c3         1 276       0.645200
     29 Cl44        -7.8120     1.6430    -9.0090 cl         1 276       0.008600
     30 F45         -5.4350    -1.9510    -9.9060 f          1 276      -0.206967
     31 F46         -7.5020    -1.0270   -10.2170 f          1 276      -0.206967
     32 F47         -5.6290     0.2640   -10.4300 f          1 276      -0.206967
     33 H1          -0.5470     0.0000    -0.9350 ha         1 276       0.137000
     34 H2           1.9160    -0.0010    -0.9430 h4         1 276      -0.019900
     35 H5          -0.4320     0.0000     3.3550 ha         1 276       0.150000
     36 HN12         4.0590    -0.0390     2.5880 hn         1 276       0.189500
     37 H131         5.4580     0.0020     4.4550 h1         1 276       0.009367
     38 H132         4.1720     0.8820     5.2910 h1         1 276       0.009367
     39 H133         4.1750    -0.8870     5.2880 h1         1 276       0.009367
     40 H19         -2.5000    -1.9930    -0.3720 ha         1 276       0.116000
     41 H22         -4.3560     2.3600    -1.8260 ha         1 276       0.116000
     42 H23         -3.1550     2.1780     0.3090 ha         1 276       0.121000
     43 HN27        -3.5860    -2.8210    -2.9460 hn         1 276       0.130700
     44 HN32        -4.9320    -2.7210    -5.2130 hn         1 276       0.281800
     45 H34         -5.0660    -2.1180    -7.6700 ha         1 276       0.124000
     46 H37         -7.6210     1.8320    -6.1730 ha         1 276       0.122000
     47 H38         -6.4630     0.4210    -4.5170 ha         1 276       0.159000
@<TRIPOS>BOND
     1     1     2 ar  
     2     1     6 ar  
     3     1    33 1   
     4     2     3 ar  
     5     2    34 1   
     6     3     4 ar  
     7     4     5 ar  
     8     4     7 1   
     9     5     6 ar  
    10     5    35 1   
    11     6    11 1   
    12     7     8 2   
    13     7     9 1   
    14     9    10 1   
    15     9    36 1   
    16    10    37 1   
    17    10    38 1   
    18    10    39 1   
    19    11    12 1   
    20    12    13 ar  
    21    12    17 ar  
    22    13    14 ar  
    23    13    40 1   
    24    14    15 ar  
    25    14    18 1   
    26    15    16 ar  
    27    15    20 1   
    28    16    17 ar  
    29    16    41 1   
    30    17    42 1   
    31    18    19 1   
    32    18    43 1   
    33    19    20 2   
    34    19    21 1   
    35    21    22 1   
    36    21    44 1   
    37    22    23 ar  
    38    22    27 ar  
    39    23    24 ar  
    40    23    45 1   
    41    24    25 ar  
    42    24    28 1   
    43    25    26 ar  
    44    25    29 1   
    45    26    27 ar  
    46    26    46 1   
    47    27    47 1   
    48    28    30 1   
    49    28    31 1   
    50    28    32 1   
@<TRIPOS>SUBSTRUCTURE
     1 276         1 TEMP              0 ****  ****    0 ROOT
