@<TRIPOS>MOLECULE
277
   54    55     1     0     0
SMALL
bcc


@<TRIPOS>ATOM
      1 C1           0.0000     0.0000     0.0000 c3         1 277      -0.038900
      2 C2           1.5270     0.0000     0.0000 c3         1 277      -0.016900
      3 C3           2.0930     0.0000     1.4260 c3         1 277      -0.059700
      4 C4           1.5260     1.1730     2.2380 c3         1 277      -0.016900
      5 C5          -0.0010     1.1740     2.2370 c3         1 277      -0.038900
      6 C6          -0.5640     1.1660     0.8150 c3         1 277       0.023700
      7 C15          3.6190     0.0500     1.4010 c3         1 277      -0.033700
      8 C17          4.2100    -1.1610     0.6580 c3         1 277      -0.188500
      9 C18          5.7180    -1.1390     0.6330 c          1 277       0.552100
     10 N19          6.2950    -1.2010    -0.6220 n          1 277      -0.128800
     11 N20         -2.0070     1.1200     0.8410 n          1 277      -0.188800
     12 C22         -2.7940     2.1470     0.3050 c          1 277       0.610100
     13 C23         -2.5950    -0.0690     1.4660 c3         1 277       0.079300
     14 C27         -4.2910     1.9820     0.3940 c3         1 277      -0.074100
     15 O31         -2.3310     3.1590    -0.2270 o          1 277      -0.616100
     16 O32          6.3590    -1.0660     1.6830 o          1 277      -0.581100
     17 N33          3.9250    -2.4090     1.3150 nz         1 277       0.101400
     18 C35          4.0740     1.3650     0.7530 c3         1 277      -0.004100
     19 C42          5.5920    -1.2830    -1.9020 c3         1 277       0.003000
     20 C43          6.6820    -1.0710    -2.9400 c3         1 277       0.187600
     21 C44          7.9330    -1.6090    -2.2630 c3         1 277      -0.071400
     22 C45          7.7370    -1.1840    -0.8150 c3         1 277       0.048000
     23 F52          6.8340     0.2670    -3.1420 f          1 277      -0.199300
     24 H11         -0.3520     0.0810    -1.0210 hc         1 277       0.027700
     25 H12         -0.3520    -0.9310     0.4270 hc         1 277       0.027700
     26 H21          1.8790     0.8840    -0.5180 hc         1 277       0.021450
     27 H22          1.8790    -0.8840    -0.5180 hc         1 277       0.021450
     28 H3           1.7890    -0.9210     1.9090 hc         1 277      -0.004300
     29 H41          1.8770     1.0960     3.2600 hc         1 277       0.021450
     30 H42          1.8780     2.1020     1.8070 hc         1 277       0.021450
     31 H51         -0.3540     0.2930     2.7600 hc         1 277       0.027700
     32 H52         -0.3530     2.0610     2.7500 hc         1 277       0.027700
     33 H6          -0.2610     2.0870     0.3310 h1         1 277       0.065700
     34 H15          3.9780     0.0320     2.4230 hc         1 277       0.057700
     35 H17          3.8300    -1.1880    -0.3560 hx         1 277       0.109700
     36 H231        -1.8040    -0.7240     1.8110 h1         1 277       0.011367
     37 H232        -3.2070    -0.5920     0.7420 h1         1 277       0.011367
     38 H233        -3.2080     0.2320     2.3070 h1         1 277       0.011367
     39 H271        -4.5840     1.9070     1.4340 hc         1 277       0.030367
     40 H272        -4.7760     2.8390    -0.0580 hc         1 277       0.030367
     41 H273        -4.5870     1.0810    -0.1310 hc         1 277       0.030367
     42 H331         3.8760    -2.2620     2.3040 hn         1 277       0.225133
     43 H332         4.6510    -3.0670     1.1110 hn         1 277       0.225133
     44 H351         5.1550     1.4230     0.7750 hc         1 277       0.031033
     45 H352         3.6560     2.2010     1.3010 hc         1 277       0.031033
     46 H353         3.7310     1.3990    -0.2740 hc         1 277       0.031033
     47 H421         5.1400    -2.2600    -2.0220 h1         1 277       0.033700
     48 H422         4.8450    -0.5010    -1.9730 h1         1 277       0.033700
     49 H43          6.4660    -1.6010    -3.8600 h1         1 277       0.055700
     50 H441         7.9760    -2.6880    -2.3420 hc         1 277       0.055200
     51 H442         8.8210    -1.1490    -2.6800 hc         1 277       0.055200
     52 H451         8.2150    -1.8900    -0.1470 h1         1 277       0.048200
     53 H452         8.1260    -0.1840    -0.6600 h1         1 277       0.048200
     54 H333         3.0580    -2.7740     0.9750 hn         1 277       0.225133
@<TRIPOS>BOND
     1     1     2 1   
     2     1     6 1   
     3     1    24 1   
     4     1    25 1   
     5     2     3 1   
     6     2    26 1   
     7     2    27 1   
     8     3     4 1   
     9     3     7 1   
    10     3    28 1   
    11     4     5 1   
    12     4    29 1   
    13     4    30 1   
    14     5     6 1   
    15     5    31 1   
    16     5    32 1   
    17     6    11 1   
    18     6    33 1   
    19     7     8 1   
    20     7    18 1   
    21     7    34 1   
    22     8     9 1   
    23     8    17 1   
    24     8    35 1   
    25     9    10 1   
    26     9    16 2   
    27    10    19 1   
    28    10    22 1   
    29    11    12 1   
    30    11    13 1   
    31    12    14 1   
    32    12    15 2   
    33    13    36 1   
    34    13    37 1   
    35    13    38 1   
    36    14    39 1   
    37    14    40 1   
    38    14    41 1   
    39    17    42 1   
    40    17    43 1   
    41    17    54 1   
    42    18    44 1   
    43    18    45 1   
    44    18    46 1   
    45    19    20 1   
    46    19    47 1   
    47    19    48 1   
    48    20    21 1   
    49    20    23 1   
    50    20    49 1   
    51    21    22 1   
    52    21    50 1   
    53    21    51 1   
    54    22    52 1   
    55    22    53 1   
@<TRIPOS>SUBSTRUCTURE
     1 277         1 TEMP              0 ****  ****    0 ROOT
