@<TRIPOS>MOLECULE
278
   19    19     1     0     0
SMALL
bcc


@<TRIPOS>ATOM
      1 C1           0.0000     0.0000     0.0000 c3         1 278      -0.025400
      2 N2           1.4640     0.0000     0.0000 na         1 278       0.444900
      3 C3           2.2590     0.0000     1.1080 cc         1 278      -0.245300
      4 C4           3.5470    -0.0000     0.7050 cd         1 278      -0.152000
      5 C5           3.5460    -0.0010    -0.7040 cd         1 278      -0.091000
      6 C6           2.2590    -0.0070    -1.1080 cc         1 278      -0.451600
      7 C7           1.7820    -0.0160    -2.5370 c3         1 278       0.088100
      8 N8           1.5120    -1.3970    -2.9550 nz         1 278       0.058400
      9 H11         -0.3610     0.1740     1.0060 h1         1 278       0.029033
     10 H12         -0.3610    -0.9590    -0.3520 h1         1 278       0.029033
     11 H13         -0.3610     0.7840    -0.6540 h1         1 278       0.029033
     12 H3           1.9160     0.0000     2.1360 h4         1 278       0.166000
     13 H4           4.4200     0.0020     1.3460 ha         1 278       0.151000
     14 H5           4.4190    -0.0020    -1.3460 ha         1 278       0.134000
     15 H71          0.8750     0.5710    -2.6180 hx         1 278       0.080200
     16 H72          2.5460     0.4120    -3.1750 hx         1 278       0.080200
     17 H81          2.2070    -2.0050    -2.5690 hn         1 278       0.224800
     18 H82          1.5360    -1.4540    -3.9540 hn         1 278       0.224800
     19 H83          0.6080    -1.6740    -2.6270 hn         1 278       0.224800
@<TRIPOS>BOND
     1     1     2 1   
     2     1     9 1   
     3     1    10 1   
     4     1    11 1   
     5     2     3 1   
     6     2     6 1   
     7     3     4 2   
     8     3    12 1   
     9     4     5 1   
    10     4    13 1   
    11     5     6 2   
    12     5    14 1   
    13     6     7 1   
    14     7     8 1   
    15     7    15 1   
    16     7    16 1   
    17     8    17 1   
    18     8    18 1   
    19     8    19 1   
@<TRIPOS>SUBSTRUCTURE
     1 278         1 TEMP              0 ****  ****    0 ROOT
