@<TRIPOS>MOLECULE
molecule
   19    19     1     0     0
SMALL
bcc


@<TRIPOS>ATOM
      1 C1           0.0000     0.0000     0.0000 c3         1 278       0.021600
      2 N2           1.4640     0.0000     0.0000 na         1 278      -0.050100
      3 C3           2.2590     0.0000     1.1080 cc         1 278      -0.084300
      4 C4           3.5470    -0.0000     0.7050 cd         1 278      -0.196000
      5 C5           3.5460    -0.0010    -0.7040 cd         1 278      -0.123000
      6 C6           2.2590    -0.0070    -1.1080 cc         1 278      -0.256600
      7 C7           1.7820    -0.0160    -2.5370 c3         1 278       0.193100
      8 N8           1.5120    -1.3970    -2.9550 nz         1 278      -0.815600
      9 H11         -0.3610     0.1740     1.0060 h1         1 278       0.060700
     10 H12         -0.3610    -0.9590    -0.3520 h1         1 278       0.060700
     11 H13         -0.3610     0.7840    -0.6540 h1         1 278       0.060700
     12 H3           1.9160     0.0000     2.1360 h4         1 278       0.195000
     13 H4           4.4200     0.0020     1.3460 ha         1 278       0.181000
     14 H5           4.4190    -0.0020    -1.3460 ha         1 278       0.162000
     15 H71          0.8750     0.5710    -2.6180 hx         1 278       0.113700
     16 H72          2.5460     0.4120    -3.1750 hx         1 278       0.113700
     17 H81          2.2070    -2.0050    -2.5690 hn         1 278       0.454133
     18 H82          1.5360    -1.4540    -3.9540 hn         1 278       0.454133
     19 H83          0.6080    -1.6740    -2.6270 hn         1 278       0.454133
@<TRIPOS>BOND
     1     1     2 1
     2     2     3 1
     3     2     6 1
     4     3     4 2
     5     4     5 1
     6     5     6 2
     7     6     7 1
     8     7     8 1
     9     1     9 1
    10     1    10 1
    11     1    11 1
    12     3    12 1
    13     4    13 1
    14     5    14 1
    15     7    15 1
    16     7    16 1
    17     8    17 1
    18     8    18 1
    19    19     8 1
@<TRIPOS>SUBSTRUCTURE
     1 278         1 TEMP              0 ****  ****    0 ROOT
