@<TRIPOS>MOLECULE
molecule
   50    52     1     0     0
SMALL
bcc


@<TRIPOS>ATOM
      1 C1           0.0000     0.0000     0.0000 ca         1 279      -0.127000
      2 C2           1.3800     0.0000     0.0000 ca         1 279      -0.116000
      3 C3           0.0030    -0.0000     2.4140 ca         1 279      -0.070000
      4 C4           2.2950    -0.5730     8.2130 cc         1 279      -0.076100
      5 C5          -0.6980    -0.0000     1.2080 ca         1 279      -0.126600
      6 C6           3.4770     0.0100     7.7860 cd         1 279      -0.227200
      7 C7           2.0750     0.0000     1.1940 ca         1 279      -0.098300
      8 C8           3.3820     0.1680     6.3870 cd         1 279      -0.034200
      9 C9           1.3900    -0.0010     2.4040 ca         1 279       0.137600
     10 C10          2.1520    -0.3220     6.0150 cc         1 279      -0.303600
     11 C11         -0.3350    -1.3920     5.8310 cd         1 279       0.707900
     12 C12          1.4880    -0.4370     4.7680 cc         1 279       0.794200
     13 C13         -2.1770     0.0000     1.2110 c          1 279       0.687700
     14 C15          3.5820    -0.0010     1.1860 c3         1 279      -0.054800
     15 C16          4.4280     0.7600     5.4770 c3         1 279      -0.049900
     16 C17          5.4000     0.2220    12.2660 c3         1 279      -0.113100
     17 C19          5.7080     0.5650    10.8070 c3         1 279       0.112000
     18 N20          0.2210    -1.3230     7.0090 nc         1 279      -0.587800
     19 N21          0.2770    -0.9650     4.7280 nd         1 279      -0.855000
     20 N22          1.5050    -0.7760     7.1500 na         1 279       0.250200
     21 N23          2.0970    -0.0020     3.6090 nu         1 279      -0.736300
     22 N24          4.5730     0.1840     9.9650 ns         1 279      -0.584900
     23 N25         -2.8530     0.0010     0.0450 ns         1 279      -0.475400
     24 O26         -2.7830    -0.0010     2.2640 o          1 279      -0.576100
     25 O27          5.6060     0.9010     8.1340 o          1 279      -0.618100
     26 O28         -4.2690     0.0010     0.0480 os         1 279      -0.178900
     27 H1          -0.5410    -0.0000    -0.9380 ha         1 279       0.121000
     28 H2           1.9200     0.0000    -0.9390 ha         1 279       0.137000
     29 H3          -0.5330    -0.0010     3.3550 ha         1 279       0.209000
     30 H4           2.0520    -0.8270     9.2380 h4         1 279       0.179000
     31 H11         -1.3270    -1.8180     5.7470 h5         1 279       0.084100
     32 H151         3.9380    -0.1070     0.1680 hc         1 279       0.047033
     33 H152         3.9460    -0.8280     1.7830 hc         1 279       0.047033
     34 H153         3.9460     0.9320     1.6000 hc         1 279       0.047033
     35 H161         4.7890    -0.0030     4.7980 hc         1 279       0.058033
     36 H162         5.2530     1.1350     6.0710 hc         1 279       0.058033
     37 H163         3.9930     1.5730     4.9090 hc         1 279       0.058033
     38 H171         6.2400     0.5040    12.8890 hc         1 279       0.042700
     39 H172         5.2260    -0.8440    12.3570 hc         1 279       0.042700
     40 H173         4.5160     0.7610    12.5850 hc         1 279       0.042700
     41 H181        -4.5350    -0.8830    -1.7950 h1         1 279       0.043700
     42 H182        -5.9320     0.0030    -1.1700 h1         1 279       0.043700
     43 H183        -4.5320     0.8860    -1.7950 h1         1 279       0.043700
     44 H191         5.8830     1.6310    10.7170 h1         1 279       0.053200
     45 H192         6.5920     0.0260    10.4890 h1         1 279       0.053200
     46 H23          3.0450     0.3200     3.6330 hn         1 279       0.472800
     47 H24          3.7630    -0.2340    10.3770 hn         1 279       0.311500
     48 H25         -2.3540     0.0010    -0.8220 hn         1 279       0.320500
     49 C14          4.6200     0.3940     8.6340 c          1 279       0.708300
     50 C18         -4.8520     0.0020    -1.2570 c3         1 279       0.095700
@<TRIPOS>BOND
     1    50    26 1
     2    26    23 1
     3    23    13 1
     4    13    24 2
     5    13     5 1
     6     1     5 ar
     7     1     2 ar
     8     5     3 ar
     9     2     7 ar
    10     3     9 ar
    11     7     9 ar
    12     7    14 1
    13     9    21 1
    14    21    12 1
    15    12    19 2
    16    12    10 1
    17    15     8 1
    18    19    11 1
    19    10     8 2
    20    10    20 1
    21     8     6 1
    22    11    18 2
    23    20    18 1
    24    20     4 1
    25     6    49 1
    26     6     4 2
    27    25    49 2
    28    49    22 1
    29    22    17 1
    30    16    17 1
    31     1    27 1
    32     2    28 1
    33     3    29 1
    34     4    30 1
    35    11    31 1
    36    14    32 1
    37    14    33 1
    38    14    34 1
    39    15    35 1
    40    15    36 1
    41    15    37 1
    42    16    38 1
    43    16    39 1
    44    16    40 1
    45    50    41 1
    46    50    42 1
    47    50    43 1
    48    17    44 1
    49    17    45 1
    50    21    46 1
    51    22    47 1
    52    23    48 1
@<TRIPOS>SUBSTRUCTURE
     1 279         1 TEMP              0 ****  ****    0 ROOT
