@<TRIPOS>MOLECULE
27A
   39    40     1     0     0
SMALL
bcc


@<TRIPOS>ATOM
      1 C1           0.0000     0.0000     0.0000 ca         1 27A      -0.050000
      2 C2           1.3810     0.0000     0.0000 ca         1 27A      -0.113000
      3 C3           2.0750     0.0000     1.2040 ca         1 27A       0.065600
      4 C4           1.3760    -0.0010     2.4040 ca         1 27A      -0.128300
      5 C5          -0.0050    -0.0010     2.3970 ca         1 27A      -0.108000
      6 C6          -0.6930    -0.0010     1.1980 ca         1 27A      -0.088000
      7 C7           3.9990    -1.1880     0.5210 c3         1 27A       0.149300
      8 C8           5.5270    -1.1910     0.6150 c3         1 27A       0.155800
      9 C9           5.5270     1.2280     0.6960 c3         1 27A       0.155800
     10 C10          3.9990     1.2310     0.6020 c3         1 27A       0.149300
     11 C11          7.5240     0.0390     0.0140 c3         1 27A       0.190100
     12 C12          2.1250    -0.0010     3.7120 c3         1 27A       0.138100
     13 C13          1.3290     1.3020     5.8800 cs         1 27A      -0.057200
     14 N5           0.0420     1.6770     6.0210 nz         1 27A       0.325600
     15 S1           1.9460    -0.0010     6.8040 s          1 27A      -0.144400
     16 N4           2.1290     1.9510     5.0120 ne         1 27A      -0.112400
     17 N3           2.5750     1.3580     4.0180 n2         1 27A       0.037800
     18 N1           3.4720    -0.0010     1.2060 nh         1 27A      -0.428000
     19 N2           6.0550     0.0390     0.0110 n3         1 27A      -0.547600
     20 H1          -0.5410    -0.0000    -0.9380 ha         1 27A       0.120000
     21 H2           1.9230     0.0010    -0.9380 ha         1 27A       0.133000
     22 H5          -0.5500    -0.0010     3.3330 ha         1 27A       0.068000
     23 H6          -1.7760    -0.0010     1.1960 ha         1 27A       0.115000
     24 H7           3.7030    -1.1640    -0.5210 h1         1 27A       0.021200
     25 H7A          3.6080    -2.0810     0.9930 h1         1 27A       0.021200
     26 H8           5.9190    -2.0500     0.0830 h1         1 27A       0.018450
     27 H8A          5.8240    -1.2370     1.6560 h1         1 27A       0.018450
     28 H9           5.9190     2.1200     0.2230 h1         1 27A       0.018450
     29 H9A          5.8240     1.2040     1.7380 h1         1 27A       0.018450
     30 H10          3.7030     1.2770    -0.4390 h1         1 27A       0.021200
     31 H10A         3.6080     2.0890     1.1340 h1         1 27A       0.021200
     32 H11          7.8860    -0.8280    -0.5250 h1         1 27A       0.005700
     33 H11A         7.8860     0.9400    -0.4660 h1         1 27A       0.005700
     34 H11B         7.8830     0.0050     1.0360 h1         1 27A       0.005700
     35 H12          1.4710    -0.3510     4.5020 h1         1 27A       0.053700
     36 H12A         2.9830    -0.6580     3.6370 h1         1 27A       0.053700
     37 HN5         -0.0810     2.1200     6.9100 hn         1 27A       0.229467
     38 HN5A        -0.5490     0.8710     5.9650 hn         1 27A       0.229467
     39 H53         -0.2000     2.3190     5.2920 hn         1 27A       0.229467
@<TRIPOS>BOND
     1     1     2 ar  
     2     1     6 ar  
     3     1    20 1   
     4     2     3 ar  
     5     2    21 1   
     6     3     4 ar  
     7     3    18 1   
     8     4     5 ar  
     9     4    12 1   
    10     5     6 ar  
    11     5    22 1   
    12     6    23 1   
    13     7     8 1   
    14     7    18 1   
    15     7    24 1   
    16     7    25 1   
    17     8    19 1   
    18     8    26 1   
    19     8    27 1   
    20     9    10 1   
    21     9    19 1   
    22     9    28 1   
    23     9    29 1   
    24    10    18 1   
    25    10    30 1   
    26    10    31 1   
    27    11    19 1   
    28    11    32 1   
    29    11    33 1   
    30    11    34 1   
    31    12    17 1   
    32    12    35 1   
    33    12    36 1   
    34    13    14 1   
    35    13    15 2   
    36    13    16 1   
    37    14    37 1   
    38    14    38 1   
    39    14    39 1   
    40    16    17 2   
@<TRIPOS>SUBSTRUCTURE
     1 27A         1 TEMP              0 ****  ****    0 ROOT
