@<TRIPOS>MOLECULE
27B
   20    21     1     0     0
SMALL
bcc


@<TRIPOS>ATOM
      1 O14         0.8300   -1.0540    0.6040 o         1 27B     -0.808300
      2 C12         1.2380    0.0350    0.1220 c         1 27B      0.914200
      3 O13         1.1990    1.1540    0.6990 o         1 27B     -0.808300
      4 C11         1.9080   -0.0170   -1.2570 ca        1 27B     -0.059600
      5 C2          1.2480    0.1430   -2.4570 ca        1 27B     -0.019900
      6 BR1        -0.6100    0.4520   -2.4740 br        1 27B     -0.114100
      7 C10         3.3110   -0.2490   -1.2570 ca        1 27B     -0.093000
      8 C9          4.0180   -0.3170   -2.4270 ca        1 27B     -0.146000
      9 C8          3.3570   -0.1550   -3.6750 ca        1 27B     -0.051000
     10 C3          1.9560    0.0780   -3.6980 ca        1 27B     -0.010000
     11 C7          4.0780   -0.2230   -4.8970 ca        1 27B     -0.117000
     12 C6          3.4380   -0.0660   -6.1020 ca        1 27B     -0.156000
     13 C5          2.0450    0.1660   -6.1320 ca        1 27B     -0.148000
     14 C4          1.3250    0.2360   -4.9640 ca        1 27B     -0.117000
     15 H2          3.8070   -0.3720   -0.2810 ha        1 27B      0.142000
     16 H3          5.1030   -0.4960   -2.4260 ha        1 27B      0.113000
     17 H4          5.1620   -0.4040   -4.8560 ha        1 27B      0.116000
     18 H5          3.9960   -0.1180   -7.0470 ha        1 27B      0.112000
     19 H6          1.5440    0.2900   -7.1020 ha        1 27B      0.113000
     20 H7          0.2390    0.4170   -4.9980 ha        1 27B      0.138000
@<TRIPOS>BOND
     1    1    2 1   
     2    2    3 1   
     3    2    4 1   
     4    4    5 ar  
     5    4    7 ar  
     6    5    6 1   
     7    5   10 ar  
     8    7    8 ar  
     9    7   15 1   
    10    8    9 ar  
    11    8   16 1   
    12    9   10 ar  
    13    9   11 ar  
    14   10   14 ar  
    15   11   12 ar  
    16   11   17 1   
    17   12   13 ar  
    18   12   18 1   
    19   13   14 ar  
    20   13   19 1   
    21   14   20 1   
@<TRIPOS>SUBSTRUCTURE
     1 27B         1 TEMP              0 ****  ****    0 ROOT
