@<TRIPOS>MOLECULE
molecule
   20    21     1     0     0
SMALL
bcc


@<TRIPOS>ATOM
      1 O14          0.0000     0.0000     0.0000 o          1 27B      -0.818800
      2 C12          1.2150     0.0000     0.0000 c          1 27B       0.869200
      3 O13          1.8890     0.0000     1.1660 o          1 27B      -0.818800
      4 C11          1.9530    -0.0070    -1.2770 ca         1 27B      -0.064600
      5 C2           1.2540    -0.0080    -2.4760 ca         1 27B      -0.006900
      6 Br1         -0.6370     0.0000    -2.4790 br         1 27B      -0.075100
      7 C10          3.3600    -0.0080    -1.2720 ca         1 27B      -0.065000
      8 C9           4.0600    -0.0130    -2.4350 ca         1 27B      -0.173000
      9 C8           3.3810    -0.0190    -3.6670 ca         1 27B      -0.032000
     10 C3           1.9640    -0.0140    -3.6890 ca         1 27B      -0.025000
     11 C7           4.0860    -0.0250    -4.8820 ca         1 27B      -0.120000
     12 C6           3.4020    -0.0310    -6.0590 ca         1 27B      -0.150000
     13 C5           2.0100    -0.0320    -6.0800 ca         1 27B      -0.151000
     14 C4           1.2920    -0.0150    -4.9230 ca         1 27B      -0.112000
     15 H2           3.9960    -0.0040    -0.3950 ha         1 27B       0.150000
     16 H3           5.1360    -0.0150    -2.3060 ha         1 27B       0.116000
     17 H4           5.1700    -0.0250    -4.8830 ha         1 27B       0.117000
     18 H5           3.9490    -0.0440    -6.9940 ha         1 27B       0.107000
     19 H6           1.4900    -0.0370    -7.0300 ha         1 27B       0.110000
     20 H7           0.2090    -0.0160    -4.9540 ha         1 27B       0.141000
@<TRIPOS>BOND
     1     6     5 1
     2     1     2 1
     3     2     3 1
     4     2     4 1
     5     5     4 ar
     6     5    10 ar
     7    14    10 ar
     8    14    13 ar
     9     4     7 ar
    10    10     9 ar
    11    13    12 ar
    12     7     8 ar
    13     9     8 ar
    14     9    11 ar
    15    12    11 ar
    16     7    15 1
    17     8    16 1
    18    11    17 1
    19    12    18 1
    20    13    19 1
    21    14    20 1
@<TRIPOS>SUBSTRUCTURE
     1 27B         1 TEMP              0 ****  ****    0 ROOT
