@<TRIPOS>MOLECULE
27D
   50    54     1     0     0
SMALL
bcc


@<TRIPOS>ATOM
      1 C01          0.0000     0.0000     0.0000 c3         1 27D      -0.041400
      2 C02          1.5070     0.0000     0.0000 ca         1 27D       0.380600
      3 C03          2.1890     0.0000     1.2010 ca         1 27D      -0.216300
      4 C04          3.5760    -0.0010     1.1900 ca         1 27D      -0.064000
      5 C05          4.2260    -0.0010    -0.0340 ca         1 27D      -0.219300
      6 C06          3.4760    -0.0000    -1.1950 ca         1 27D       0.379600
      7 C07          4.1720    -0.0010    -2.5320 c3         1 27D      -0.141700
      8 C08          3.6800    -1.1650    -3.3540 c          1 27D       0.562100
      9 O            2.8480    -1.9190    -2.8990 o          1 27D      -0.568100
     10 N01          4.1660    -1.3670    -4.5940 n          1 27D       0.247800
     11 C09          5.1150    -0.5830    -5.2100 cc         1 27D      -0.240400
     12 C10          5.3740    -1.0600    -6.4350 cd         1 27D      -0.098200
     13 C11          4.5280    -2.2440    -6.6280 ca         1 27D      -0.143800
     14 C12          3.7930    -2.3970    -5.4390 ca         1 27D      -0.129400
     15 C13          2.8940    -3.4510    -5.3150 ca         1 27D      -0.096000
     16 C14          2.7290    -4.3440    -6.3510 ca         1 27D      -0.061000
     17 C15          3.4590    -4.2010    -7.5340 ca         1 27D      -0.058800
     18 C16          3.2700    -5.1700    -8.6420 cc         1 27D      -0.053400
     19 C17          2.1420    -5.3600    -9.3690 cd         1 27D      -0.254100
     20 N02          2.3560    -6.3400   -10.3010 na         1 27D       0.314900
     21 C18          1.3590    -6.8110   -11.2650 c3         1 27D      -0.010400
     22 C19          3.6370    -6.8150   -10.2040 ca         1 27D       0.301800
     23 N03          4.3320    -7.7430   -10.8590 nb         1 27D      -0.682000
     24 C20          5.5840    -7.9940   -10.5400 ca         1 27D       0.681900
     25 N04          6.2150    -7.3550    -9.5720 nb         1 27D      -0.733000
     26 C21          5.6030    -6.4110    -8.8610 ca         1 27D       0.594200
     27 N05          6.2670    -5.7430    -7.8480 nv         1 27D      -0.535500
     28 C22          4.2710    -6.1050    -9.1700 ca         1 27D      -0.379400
     29 C            4.3540    -3.1460    -7.6780 ca         1 27D       0.159900
     30 F            5.0630    -3.0060    -8.8200 f          1 27D      -0.122900
     31 N            2.1580    -0.0050    -1.1470 nb         1 27D      -0.540000
     32 H1          -0.3610    -0.8890     0.5020 hc         1 27D       0.014700
     33 H2          -0.3610     0.0100    -1.0210 hc         1 27D       0.014700
     34 H3          -0.3610     0.8800     0.5190 hc         1 27D       0.014700
     35 H4           1.6490    -0.0000     2.1400 ha         1 27D       0.116000
     36 H5           4.1370    -0.0020     2.1160 ha         1 27D       0.108000
     37 H6           5.3080    -0.0020    -0.0800 ha         1 27D       0.112000
     38 H7           3.9590     0.9250    -3.0520 hc         1 27D       0.041700
     39 H8           5.2410    -0.0930    -2.3820 hc         1 27D       0.041700
     40 H9           5.5820     0.2900    -4.7710 h4         1 27D       0.148000
     41 H10          6.0760    -0.6490    -7.1500 ha         1 27D       0.136000
     42 H11          2.3230    -3.5700    -4.4020 ha         1 27D       0.140000
     43 H12          2.0270    -5.1630    -6.2470 ha         1 27D       0.115000
     44 H13          1.2140    -4.8170    -9.2350 h4         1 27D       0.149000
     45 H14          0.3780    -6.4570   -10.9720 h1         1 27D       0.022367
     46 H15          1.3610    -7.8940   -11.2850 h1         1 27D       0.022367
     47 H16          1.6010    -6.4310   -12.2500 h1         1 27D       0.022367
     48 H17          6.1190    -8.7560   -11.0940 h5         1 27D      -0.007900
     49 H18          7.2500    -5.5690    -7.9240 hn         1 27D       0.275800
     50 H19          5.7750    -5.4770    -7.0180 hn         1 27D       0.275800
@<TRIPOS>BOND
     1     1     2 1   
     2     1    32 1   
     3     1    33 1   
     4     1    34 1   
     5     2     3 ar  
     6     2    31 ar  
     7     3     4 ar  
     8     3    35 1   
     9     4     5 ar  
    10     4    36 1   
    11     5     6 ar  
    12     5    37 1   
    13     6     7 1   
    14     6    31 ar  
    15     7     8 1   
    16     7    38 1   
    17     7    39 1   
    18     8     9 2   
    19     8    10 1   
    20    10    11 1   
    21    10    14 1   
    22    11    12 2   
    23    11    40 1   
    24    12    13 1   
    25    12    41 1   
    26    13    14 ar  
    27    13    29 ar  
    28    14    15 ar  
    29    15    16 ar  
    30    15    42 1   
    31    16    17 ar  
    32    16    43 1   
    33    17    18 1   
    34    17    29 ar  
    35    18    19 2   
    36    18    28 1   
    37    19    20 1   
    38    19    44 1   
    39    20    21 1   
    40    20    22 1   
    41    21    45 1   
    42    21    46 1   
    43    21    47 1   
    44    22    23 ar  
    45    22    28 ar  
    46    23    24 ar  
    47    24    25 ar  
    48    24    48 1   
    49    25    26 ar  
    50    26    27 1   
    51    26    28 ar  
    52    27    49 1   
    53    27    50 1   
    54    29    30 1   
@<TRIPOS>SUBSTRUCTURE
     1 27D         1 TEMP              0 ****  ****    0 ROOT
