@<TRIPOS>MOLECULE
molecule
   21    25     1     0     0
SMALL
bcc


@<TRIPOS>ATOM
      1 OAU         -0.0620    -3.5650     0.4300 o          1 27E      -0.397100
      2 CAA         -0.0420    -2.3670     0.2750 c          1 27E       0.586100
      3 CAB          1.1520    -1.4190     0.1360 cy         1 27E      -0.061600
      4 ClT          2.8070    -2.1280     0.2290 cl         1 27E      -0.037400
      5 CAC          0.7820    -0.2190     1.0390 cy         1 27E       0.053150
      6 ClS          1.6200    -0.0470     2.6260 cl         1 27E      -0.054900
      7 CAH          1.2000     0.7060    -0.1340 cy         1 27E       0.046400
      8 ClN          2.8910     1.3210    -0.2400 cl         1 27E      -0.033900
      9 CAG          0.7620    -0.4950    -1.0400 cy         1 27E       0.053150
     10 ClO          1.5640    -0.7110    -2.6400 cl         1 27E      -0.054900
     11 CAF         -0.8090    -0.4670    -1.0210 cy         1 27E       0.053150
     12 ClP         -1.6560    -0.6520    -2.6020 cl         1 27E      -0.054900
     13 CAE         -1.2050    -1.3770     0.1570 cy         1 27E      -0.061600
     14 ClQ         -2.8830    -2.0290     0.2570 cl         1 27E      -0.037400
     15 CAD         -0.7700    -0.1910     1.0580 cy         1 27E       0.053150
     16 ClR         -1.5640     0.0110     2.6640 cl         1 27E      -0.054900
     17 CAJ         -1.1820     0.7490    -0.1050 cy         1 27E       0.046400
     18 ClK         -2.8520     1.4250    -0.1720 cl         1 27E      -0.033900
     19 CAI          0.0360     1.7570    -0.1530 c3         1 27E       0.161800
     20 ClM          0.0340     2.7140    -1.6810 cl         1 27E      -0.085400
     21 ClL          0.0910     2.8320     1.2930 cl         1 27E      -0.085400
@<TRIPOS>BOND
     1    20    19 1
     2    10     9 1
     3    12    11 1
     4     8     7 1
     5     9     7 1
     6     9    11 1
     7     9     3 1
     8    19     7 1
     9    19    21 1
    10    19    17 1
    11     7     5 1
    12    11    17 1
    13    11    13 1
    14    17    18 1
    15    17    15 1
    16     4     3 1
    17     3     5 1
    18     3     2 1
    19     5    15 1
    20     5     6 1
    21    13     2 1
    22    13    15 1
    23    13    14 1
    24     2     1 2
    25    15    16 1
@<TRIPOS>SUBSTRUCTURE
     1 27E         1 TEMP              0 ****  ****    0 ROOT
