@<TRIPOS>MOLECULE
27E
   21    25     1     0     0
SMALL
bcc


@<TRIPOS>ATOM
      1 OAU        -0.0670   -3.6210    0.3930 o         1 27E     -0.408100
      2 CAA        -0.0450   -2.4130    0.2610 c         1 27E      0.598100
      3 CAB         1.1270   -1.4650    0.1440 cy        1 27E     -0.085600
      4 CLT         2.6950   -2.1240    0.1990 cl        1 27E     -0.024400
      5 CAC         0.7970   -0.2370    1.1010 cy        1 27E      0.032400
      6 CLS         1.6030   -0.0930    2.5830 cl        1 27E     -0.022400
      7 CAH         1.1620    0.7440   -0.0980 cy        1 27E      0.016400
      8 CLN         2.7530    1.3430   -0.1800 cl        1 27E     -0.023400
      9 CAG         0.7740   -0.4720   -1.0480 cy        1 27E      0.032400
     10 CLO         1.5470   -0.6540   -2.5430 cl        1 27E     -0.022400
     11 CAF        -0.8100   -0.4410   -1.0340 cy        1 27E      0.032400
     12 CLP        -1.6160   -0.5930   -2.5160 cl        1 27E     -0.022400
     13 CAE        -1.1810   -1.4210    0.1640 cy        1 27E     -0.085600
     14 CLQ        -2.7710   -2.0180    0.2470 cl        1 27E     -0.024400
     15 CAD        -0.7870   -0.2060    1.1150 cy        1 27E      0.032400
     16 CLR        -1.5610   -0.0320    2.6110 cl        1 27E     -0.022400
     17 CAJ        -1.1350    0.7880   -0.0780 cy        1 27E      0.016400
     18 CLK        -2.7030    1.4480   -0.1330 cl        1 27E     -0.023400
     19 CAI         0.0320    1.7760   -0.1980 c3        1 27E      0.149800
     20 CLM         0.0350    2.6140   -1.7320 cl        1 27E     -0.072400
     21 CLL         0.0660    2.9260    1.1170 cl        1 27E     -0.072400
@<TRIPOS>BOND
     1    1    2 2   
     2    2    3 1   
     3    2   13 1   
     4    3    4 1   
     5    3    5 1   
     6    3    9 1   
     7    5    6 1   
     8    5    7 1   
     9    5   15 1   
    10    7    8 1   
    11    7    9 1   
    12    7   19 1   
    13    9   10 1   
    14    9   11 1   
    15   11   12 1   
    16   11   13 1   
    17   11   17 1   
    18   13   14 1   
    19   13   15 1   
    20   15   16 1   
    21   15   17 1   
    22   17   18 1   
    23   17   19 1   
    24   19   20 1   
    25   19   21 1   
@<TRIPOS>SUBSTRUCTURE
     1 27E         1 TEMP              0 ****  ****    0 ROOT
