@<TRIPOS>MOLECULE
27F
   28    30     1     0     0
SMALL
bcc


@<TRIPOS>ATOM
      1 CAB          0.0000     0.0000     0.0000 c          1 27F       0.647100
      2 OAA         -0.6310    -0.0000     1.0410 o          1 27F      -0.646500
      3 CAK          1.4700     0.0000     0.0000 ca         1 27F      -0.182600
      4 CAJ          2.2050     0.0000     1.1840 ca         1 27F       0.027000
      5 CAI          3.5820    -0.0000     1.1290 ca         1 27F      -0.186000
      6 CAH          4.2420     0.0000    -0.0940 ca         1 27F      -0.125000
      7 CAG          3.5350     0.0020    -1.2750 ca         1 27F      -0.097000
      8 CAF          2.1380     0.0010    -1.2460 ca         1 27F       0.152400
      9 CAD          0.1020    -0.0070    -2.3600 cc         1 27F       0.315500
     10 CAL         -0.6240    -0.0130    -3.6460 ca         1 27F      -0.128900
     11 CAQ         -2.0210    -0.0140    -3.6610 ca         1 27F      -0.066000
     12 CAP         -2.6970    -0.0210    -4.8590 ca         1 27F      -0.081000
     13 CAO         -1.9870    -0.0270    -6.0620 ca         1 27F       0.040000
     14 CAR         -2.6910    -0.0340    -7.3090 cg         1 27F       0.221800
     15 NAS         -3.2430    -0.0220    -8.3010 n1         1 27F      -0.365800
     16 CAN         -0.5900    -0.0260    -6.0480 ca         1 27F      -0.081000
     17 N           -0.6250    -0.0060    -1.2000 ns         1 27F      -0.055400
     18 CAM          0.0860    -0.0130    -4.8500 ca         1 27F      -0.066000
     19 N1           1.4100    -0.0000    -2.3820 nd         1 27F      -0.522100
     20 H           -1.4710     0.3560    -1.5940 hn         1 27F       0.205500
     21 HAJ          2.1040     0.2080     2.2420 ha         1 27F       0.134000
     22 HAI          4.5410    -0.2330     1.5770 ha         1 27F       0.149000
     23 HAH          5.2780    -0.2920    -0.2120 ha         1 27F       0.106000
     24 HAG          4.1370     0.1910    -2.1560 ha         1 27F       0.117000
     25 HAM          1.1600     0.0180    -4.9920 ha         1 27F       0.124000
     26 HAQ         -2.5340    -0.0200    -2.7070 ha         1 27F       0.124000
     27 HAN         -0.0490    -0.3840    -6.9170 ha         1 27F       0.119500
     28 HAP         -3.7710     0.0730    -4.9670 ha         1 27F       0.119500
@<TRIPOS>BOND
     1     1     2 2   
     2     1     3 1   
     3     1    17 1   
     4     3     4 ar  
     5     3     8 ar  
     6     4     5 ar  
     7     4    21 1   
     8     5     6 ar  
     9     5    22 1   
    10     6     7 ar  
    11     6    23 1   
    12     7     8 ar  
    13     7    24 1   
    14     8    19 1   
    15     9    10 1   
    16     9    17 1   
    17     9    19 2   
    18    10    11 ar  
    19    10    18 ar  
    20    11    12 ar  
    21    11    26 1   
    22    12    13 ar  
    23    12    28 1   
    24    13    14 1   
    25    13    16 ar  
    26    14    15 3   
    27    16    18 ar  
    28    16    27 1   
    29    17    20 1   
    30    18    25 1   
@<TRIPOS>SUBSTRUCTURE
     1 27F         1 TEMP              0 ****  ****    0 ROOT
