@<TRIPOS>MOLECULE
molecule
   28    30     1     0     0
SMALL
bcc


@<TRIPOS>ATOM
      1 CAB          0.0000     0.0000     0.0000 c          1 27F       0.731100
      2 OAA         -0.6310    -0.0000     1.0410 o          1 27F      -0.601500
      3 CAK          1.4700     0.0000     0.0000 ca         1 27F      -0.174600
      4 CAJ          2.2050     0.0000     1.1840 ca         1 27F      -0.021000
      5 CAI          3.5820    -0.0000     1.1290 ca         1 27F      -0.201000
      6 CAH          4.2420     0.0000    -0.0940 ca         1 27F      -0.144000
      7 CAG          3.5350     0.0020    -1.2750 ca         1 27F      -0.122000
      8 CAF          2.1380     0.0010    -1.2460 ca         1 27F       0.198400
      9 CAD          0.1020    -0.0070    -2.3600 cc         1 27F       0.498500
     10 CAL         -0.6240    -0.0130    -3.6460 ca         1 27F      -0.121900
     11 CAQ         -2.0210    -0.0140    -3.6610 ca         1 27F      -0.093000
     12 CAP         -2.6970    -0.0210    -4.8590 ca         1 27F      -0.100000
     13 CAO         -1.9870    -0.0270    -6.0620 ca         1 27F      -0.003000
     14 CAR         -2.6910    -0.0340    -7.3090 cg         1 27F       0.230800
     15 NAS         -3.2430    -0.0220    -8.3010 n1         1 27F      -0.345800
     16 CAN         -0.5900    -0.0260    -6.0480 ca         1 27F      -0.100000
     17 N           -0.6250    -0.0060    -1.2000 ns         1 27F      -0.472400
     18 CAM          0.0860    -0.0130    -4.8500 ca         1 27F      -0.093000
     19 N1           1.4100    -0.0000    -2.3820 nd         1 27F      -0.637100
     20 H           -1.4710     0.3560    -1.5940 hn         1 27F       0.342500
     21 HAJ          2.1040     0.2080     2.2420 ha         1 27F       0.168000
     22 HAI          4.5410    -0.2330     1.5770 ha         1 27F       0.172000
     23 HAH          5.2780    -0.2920    -0.2120 ha         1 27F       0.132000
     24 HAG          4.1370     0.1910    -2.1560 ha         1 27F       0.146000
     25 HAM          1.1600     0.0180    -4.9920 ha         1 27F       0.154000
     26 HAQ         -2.5340    -0.0200    -2.7070 ha         1 27F       0.154000
     27 HAN         -0.0490    -0.3840    -6.9170 ha         1 27F       0.151500
     28 HAP         -3.7710     0.0730    -4.9670 ha         1 27F       0.151500
@<TRIPOS>BOND
     1     1     2 2   
     2     1     3 1   
     3     1    17 1   
     4     3     4 ar  
     5     3     8 ar  
     6     4     5 ar  
     7     5     6 ar  
     8     6     7 ar  
     9     7     8 ar  
    10     8    19 1   
    11     9    10 1   
    12     9    17 1   
    13     9    19 2   
    14    10    18 ar  
    15    10    11 ar  
    16    18    16 ar  
    17    16    13 ar  
    18    13    14 1   
    19    13    12 ar  
    20    14    15 3   
    21    12    11 ar  
    22    17    20 1   
    23     4    21 1   
    24     5    22 1   
    25     6    23 1   
    26     7    24 1   
    27    18    25 1   
    28    11    26 1   
    29    16    27 1   
    30    12    28 1   
@<TRIPOS>SUBSTRUCTURE
     1 27F         1 TEMP              0 ****  ****    0 ROOT
