@<TRIPOS>MOLECULE
27G
   43    44     1     0     0
SMALL
bcc


@<TRIPOS>ATOM
      1 CAA         0.1400    0.9020    0.0260 c3        1 27G     -0.092100
      2 CAM         1.5320    0.3280   -0.0090 c3        1 27G     -0.079400
      3 CAN         2.1930    0.4070    1.3500 c3        1 27G     -0.086400
      4 CAO         3.5920   -0.1750    1.2850 c3        1 27G      0.139400
      5 OAQ         4.1300   -0.0590    2.6160 os        1 27G     -0.434900
      6 CAS         5.3790   -0.5840    2.8080 c         1 27G      0.645700
      7 OAB         5.9750   -1.0570    1.8390 o         1 27G     -0.522000
      8 CAV         5.8550   -0.4550    4.2000 ca        1 27G     -0.072600
      9 CAK         5.6400    0.7460    4.8850 ca        1 27G     -0.091000
     10 CAG         6.1350    0.9150    6.1770 ca        1 27G     -0.117000
     11 CAH         6.8470   -0.1130    6.7930 ca        1 27G     -0.115000
     12 CAL         7.0540   -1.3180    6.1230 ca        1 27G     -0.092000
     13 CAW         6.5480   -1.5000    4.8310 ca        1 27G     -0.071600
     14 CAT         6.7230   -2.8110    4.1730 c         1 27G      0.647700
     15 OAC         5.8800   -3.4960    3.5940 o         1 27G     -0.519000
     16 OAR         7.9970   -3.3000    4.2890 os        1 27G     -0.430900
     17 CAP         8.2420   -4.5740    3.6590 c3        1 27G      0.183700
     18 CAU         9.6620   -4.9420    3.9220 ca        1 27G     -0.095300
     19 CAI         9.9910   -6.2860    4.1330 ca        1 27G     -0.112000
     20 CAE        11.3190   -6.6560    4.3380 ca        1 27G     -0.132500
     21 CAD        12.3230   -5.6870    4.3400 ca        1 27G     -0.125000
     22 CAF        11.9970   -4.3460    4.1370 ca        1 27G     -0.132500
     23 CAJ        10.6710   -3.9730    3.9250 ca        1 27G     -0.112000
     24 H1         -0.3320    0.8350   -0.9840 hc        1 27G      0.035033
     25 H2          0.1630    1.9760    0.3350 hc        1 27G      0.035033
     26 H3         -0.4990    0.3430    0.7520 hc        1 27G      0.035033
     27 H4          1.4910   -0.7420   -0.3440 hc        1 27G      0.042700
     28 H5          2.1520    0.8860   -0.7610 hc        1 27G      0.042700
     29 H6          1.5890   -0.1560    2.1080 hc        1 27G      0.054700
     30 H7          2.2460    1.4730    1.6930 hc        1 27G      0.054700
     31 H8          4.2520    0.3940    0.5800 h1        1 27G      0.055700
     32 H9          3.5830   -1.2570    0.9910 h1        1 27G      0.055700
     33 H10         5.0730    1.5530    4.3930 ha        1 27G      0.156000
     34 H11         5.9630    1.8630    6.7090 ha        1 27G      0.143000
     35 H12         7.2460    0.0220    7.8100 ha        1 27G      0.144000
     36 H13         7.6200   -2.1340    6.6000 ha        1 27G      0.157000
     37 H14         8.0510   -4.4650    2.5570 h1        1 27G      0.065700
     38 H15         7.5270   -5.3280    4.0840 h1        1 27G      0.065700
     39 H16         9.2000   -7.0510    4.1360 ha        1 27G      0.139500
     40 H17        11.5740   -7.7130    4.4990 ha        1 27G      0.132500
     41 H18        13.3700   -5.9810    4.5040 ha        1 27G      0.131000
     42 H19        12.7870   -3.5810    4.1410 ha        1 27G      0.132500
     43 H20        10.4060   -2.9160    3.7670 ha        1 27G      0.139500
@<TRIPOS>BOND
     1    1    2 1   
     2    1   24 1   
     3    1   25 1   
     4    1   26 1   
     5    2    3 1   
     6    2   27 1   
     7    2   28 1   
     8    3    4 1   
     9    3   29 1   
    10    3   30 1   
    11    4    5 1   
    12    4   31 1   
    13    4   32 1   
    14    5    6 1   
    15    6    7 2   
    16    6    8 1   
    17    8    9 ar  
    18    8   13 ar  
    19    9   10 ar  
    20    9   33 1   
    21   10   11 ar  
    22   10   34 1   
    23   11   12 ar  
    24   11   35 1   
    25   12   13 ar  
    26   12   36 1   
    27   13   14 1   
    28   14   15 2   
    29   14   16 1   
    30   16   17 1   
    31   17   18 1   
    32   17   37 1   
    33   17   38 1   
    34   18   19 ar  
    35   18   23 ar  
    36   19   20 ar  
    37   19   39 1   
    38   20   21 ar  
    39   20   40 1   
    40   21   22 ar  
    41   21   41 1   
    42   22   23 ar  
    43   22   42 1   
    44   23   43 1   
@<TRIPOS>SUBSTRUCTURE
     1 27G         1 TEMP              0 ****  ****    0 ROOT
