@<TRIPOS>MOLECULE
molecule
   43    44     1     0     0
SMALL
bcc


@<TRIPOS>ATOM
      1 CAA          0.0000     0.0000     0.0000 c3         1 27G      -0.090100
      2 CAM          1.5300     0.0000     0.0000 c3         1 27G      -0.082400
      3 CAN          2.0400     0.0000     1.4430 c3         1 27G      -0.085400
      4 CAO          3.5700    -0.0000     1.4430 c3         1 27G       0.149400
      5 OAQ          4.0540    -0.0010     2.8120 os         1 27G      -0.428900
      6 CAS          5.3890    -0.0010     2.9880 c          1 27G       0.645700
      7 OAB          6.1300     0.0000     2.0250 o          1 27G      -0.509000
      8 CAV          5.9540    -0.0020     4.3540 ca         1 27G      -0.054600
      9 CAK          5.5770     0.9780     5.2680 ca         1 27G      -0.104000
     10 CAG          6.1080     0.9730     6.5460 ca         1 27G      -0.108000
     11 CAH          7.0160    -0.0010     6.9220 ca         1 27G      -0.127000
     12 CAL          7.4030    -0.9800     6.0270 ca         1 27G      -0.084000
     13 CAW          6.8740    -0.9950     4.7390 ca         1 27G      -0.087600
     14 CAT          7.2850    -2.0420     3.7790 c          1 27G       0.639700
     15 OAC          6.7390    -2.1210     2.6970 o          1 27G      -0.524000
     16 OAR          8.2640    -2.9080     4.1040 os         1 27G      -0.425900
     17 CAP          8.6150    -3.9080     3.1120 c3         1 27G       0.199700
     18 CAU          9.7220    -4.7810     3.6480 ca         1 27G      -0.100300
     19 CAI          9.4150    -5.9260     4.3590 ca         1 27G      -0.103000
     20 CAE         10.4300    -6.7260     4.8510 ca         1 27G      -0.132500
     21 CAD         11.7500    -6.3800     4.6310 ca         1 27G      -0.117000
     22 CAF         12.0560    -5.2350     3.9210 ca         1 27G      -0.132500
     23 CAJ         11.0420    -4.4380     3.4250 ca         1 27G      -0.103000
     24 H1          -0.3610    -0.8850     0.5110 hc         1 27G       0.035367
     25 H2          -0.3610     0.0000    -1.0210 hc         1 27G       0.035367
     26 H3          -0.3610     0.8840     0.5110 hc         1 27G       0.035367
     27 H4           1.8910    -0.8840    -0.5110 hc         1 27G       0.043700
     28 H5           1.8910     0.8840    -0.5110 hc         1 27G       0.043700
     29 H6           1.6790     0.8840     1.9530 hc         1 27G       0.052700
     30 H7           1.6790    -0.8840     1.9530 hc         1 27G       0.052700
     31 H8           3.9310     0.8850     0.9330 h1         1 27G       0.052200
     32 H9           3.9310    -0.8840     0.9310 h1         1 27G       0.052200
     33 H10          4.8660     1.7430     4.9800 ha         1 27G       0.149000
     34 H11          5.8120     1.7360     7.2550 ha         1 27G       0.139000
     35 H12          7.4270     0.0060     7.9240 ha         1 27G       0.139000
     36 H13          8.1130    -1.7400     6.3300 ha         1 27G       0.157000
     37 H14          7.7480    -4.5190     2.8920 h1         1 27G       0.058200
     38 H15          8.9500    -3.4170     2.2060 h1         1 27G       0.058200
     39 H16          8.3810    -6.1970     4.5310 ha         1 27G       0.134500
     40 H17         10.1900    -7.6230     5.4070 ha         1 27G       0.132000
     41 H18         12.5450    -7.0060     5.0190 ha         1 27G       0.130000
     42 H19         13.0910    -4.9650     3.7480 ha         1 27G       0.132000
     43 H20         11.2820    -3.5400     2.8680 ha         1 27G       0.134500
@<TRIPOS>BOND
     1    23    22 ar  
     2    23    18 ar  
     3    22    21 ar  
     4    17    18 1   
     5    17    16 1   
     6     1     2 1   
     7    18    19 ar  
     8    15    14 2   
     9    21    20 ar  
    10    19    20 ar  
    11    16    14 1   
    12    14    13 1   
    13     2     3 1   
    14     3     4 1   
    15    13    12 ar  
    16    13     8 ar  
    17    12    11 ar  
    18     4     5 1   
    19     5     6 1   
    20     6     8 1   
    21     6     7 2   
    22     8     9 ar  
    23    11    10 ar  
    24     9    10 ar  
    25     1    24 1   
    26     1    25 1   
    27     1    26 1   
    28     2    27 1   
    29     2    28 1   
    30     3    29 1   
    31     3    30 1   
    32     4    31 1   
    33     4    32 1   
    34     9    33 1   
    35    10    34 1   
    36    11    35 1   
    37    12    36 1   
    38    17    37 1   
    39    17    38 1   
    40    19    39 1   
    41    20    40 1   
    42    21    41 1   
    43    22    42 1   
    44    23    43 1   
@<TRIPOS>SUBSTRUCTURE
     1 27G         1 TEMP              0 ****  ****    0 ROOT
