@<TRIPOS>MOLECULE
27H
   56    58     1     0     0
SMALL
bcc


@<TRIPOS>ATOM
      1 CAB         0.0240   -0.1030   -0.0960 c3        1 27H     -0.092600
      2 CAV         1.5390   -0.1080   -0.0210 c3        1 27H     -0.093700
      3 CAC         2.1120    0.9630   -0.9250 c3        1 27H     -0.092600
      4 CAZ         2.0290    0.0020    1.4360 c3        1 27H      0.168800
      5 CAX         3.5750   -0.0410    1.5620 c3        1 27H     -0.047700
      6 OAG         1.5350   -1.1070    2.1850 oh        1 27H     -0.594800
      7 CAO         1.6060    1.3290    2.1110 c3        1 27H     -0.110400
      8 CAN         2.8680    1.9740    2.6650 c3        1 27H     -0.074400
      9 CAY         3.8980    0.8380    2.7920 c3        1 27H     -0.041000
     10 CAD         3.6640    0.1190    4.1110 c3        1 27H     -0.091100
     11 CAM         5.3230    1.3760    2.7230 c3        1 27H     -0.034200
     12 CAH         6.3450    0.3780    3.1190 c2        1 27H     -0.172200
     13 CAR         6.5140   -0.8350    2.5710 c2        1 27H     -0.107400
     14 CAA         7.5660   -1.7580    3.0720 c3        1 27H     -0.061900
     15 CAP         5.7340   -1.3520    1.4160 c3        1 27H     -0.064200
     16 CAW         4.2190   -1.4210    1.6370 c3        1 27H      0.177100
     17 OAQ         3.6800   -2.1860    0.5310 os        1 27H     -0.439900
     18 CAS         3.6190   -3.5450    0.6770 c         1 27H      0.657700
     19 OAE         4.0510   -4.0560    1.7150 o         1 27H     -0.550000
     20 CAU         3.0350   -4.2450   -0.4770 ca        1 27H     -0.169600
     21 CAK         2.7410   -3.5720   -1.6710 ca        1 27H     -0.038000
     22 CAI         2.1930   -4.2590   -2.7480 ca        1 27H     -0.205000
     23 CAT         1.9380   -5.6360   -2.6220 ca        1 27H      0.155100
     24 OAF         1.3950   -6.2590   -3.7180 oh        1 27H     -0.492100
     25 CAJ         2.2290   -6.3190   -1.4310 ca        1 27H     -0.205000
     26 CAL         2.7790   -5.6180   -0.3630 ca        1 27H     -0.038000
     27 H1         -0.4000   -1.0130    0.3950 hc        1 27H      0.035200
     28 H2         -0.3070   -0.1070   -1.1630 hc        1 27H      0.035200
     29 H3         -0.4020    0.8010    0.4000 hc        1 27H      0.035200
     30 H4          1.8980   -1.1130   -0.3940 hc        1 27H      0.075700
     31 H5          2.1170    1.9620   -0.4270 hc        1 27H      0.035200
     32 H6          1.5080    1.0420   -1.8620 hc        1 27H      0.035200
     33 H7          3.1610    0.7120   -1.2180 hc        1 27H      0.035200
     34 H8          3.9870    0.4780    0.6510 hc        1 27H      0.060700
     35 H9          0.5740   -1.0330    2.2030 ho        1 27H      0.399000
     36 H10         1.0960    2.0110    1.3890 hc        1 27H      0.049700
     37 H11         0.8860    1.1110    2.9410 hc        1 27H      0.049700
     38 H12         3.2480    2.7560    1.9600 hc        1 27H      0.044200
     39 H13         2.6790    2.4620    3.6520 hc        1 27H      0.044200
     40 H14         2.6520   -0.3560    4.1110 hc        1 27H      0.044033
     41 H15         3.7240    0.8480    4.9560 hc        1 27H      0.044033
     42 H16         4.4310   -0.6740    4.2800 hc        1 27H      0.044033
     43 H17         5.5370    1.7380    1.6800 hc        1 27H      0.045700
     44 H18         5.3940    2.2680    3.4030 hc        1 27H      0.045700
     45 H19         6.9990    0.6950    3.9490 ha        1 27H      0.120000
     46 H20         8.1450   -1.3080    3.9150 hc        1 27H      0.043367
     47 H21         7.0970   -2.7080    3.4310 hc        1 27H      0.043367
     48 H22         8.2800   -2.0100    2.2480 hc        1 27H      0.043367
     49 H23         5.9410   -0.7080    0.5180 hc        1 27H      0.057200
     50 H24         6.0770   -2.3940    1.1640 hc        1 27H      0.057200
     51 H25         3.9620   -1.9360    2.6020 h1        1 27H      0.099700
     52 H26         2.9490   -2.4930   -1.7530 ha        1 27H      0.158000
     53 H27         1.9580   -3.7470   -3.6920 ha        1 27H      0.147500
     54 H28         1.2720   -7.1960   -3.5030 ho        1 27H      0.424000
     55 H29         2.0260   -7.3950   -1.3440 ha        1 27H      0.147500
     56 H30         3.0190   -6.1350    0.5810 ha        1 27H      0.158000
@<TRIPOS>BOND
     1    1    2 1   
     2    1   27 1   
     3    1   28 1   
     4    1   29 1   
     5    2    3 1   
     6    2    4 1   
     7    2   30 1   
     8    3   31 1   
     9    3   32 1   
    10    3   33 1   
    11    4    5 1   
    12    4    6 1   
    13    4    7 1   
    14    5    9 1   
    15    5   16 1   
    16    5   34 1   
    17    6   35 1   
    18    7    8 1   
    19    7   36 1   
    20    7   37 1   
    21    8    9 1   
    22    8   38 1   
    23    8   39 1   
    24    9   10 1   
    25    9   11 1   
    26   10   40 1   
    27   10   41 1   
    28   10   42 1   
    29   11   12 1   
    30   11   43 1   
    31   11   44 1   
    32   12   13 2   
    33   12   45 1   
    34   13   14 1   
    35   13   15 1   
    36   14   46 1   
    37   14   47 1   
    38   14   48 1   
    39   15   16 1   
    40   15   49 1   
    41   15   50 1   
    42   16   17 1   
    43   16   51 1   
    44   17   18 1   
    45   18   19 2   
    46   18   20 1   
    47   20   21 ar  
    48   20   26 ar  
    49   21   22 ar  
    50   21   52 1   
    51   22   23 ar  
    52   22   53 1   
    53   23   24 1   
    54   23   25 ar  
    55   24   54 1   
    56   25   26 ar  
    57   25   55 1   
    58   26   56 1   
@<TRIPOS>SUBSTRUCTURE
     1 27H         1 TEMP              0 ****  ****    0 ROOT
