@<TRIPOS>MOLECULE
27I
   50    52     1     0     0
SMALL
bcc


@<TRIPOS>ATOM
      1 N1           0.0000     0.0000     0.0000 na         1 27I       0.506400
      2 O1          -1.1840     1.4870     7.5200 o          1 27I      -0.602100
      3 N7          -1.9440     2.4050     5.6460 ns         1 27I      -0.066400
      4 C10         -2.8480     3.1800     6.3440 c2         1 27I       0.050800
      5 N9          -3.6820     4.0380     5.6680 nz         1 27I       0.187400
      6 N8          -2.9100     3.0980     7.6420 n2         1 27I      -0.581100
      7 C6          -0.1600     0.7370     5.5640 ca         1 27I       0.128500
      8 N3          -0.1710     0.7380     4.2310 nb         1 27I      -0.558000
      9 C7           0.7740    -0.0490     6.2580 ca         1 27I       0.489900
     10 N6           0.7880    -0.0470     7.6410 nv         1 27I      -0.640500
     11 N4           1.6450    -0.7930     5.5850 nb         1 27I      -0.593000
     12 C8           1.6300    -0.7960     4.2600 ca         1 27I       0.454900
     13 C5           0.6960    -0.0050     3.5630 ca         1 27I       0.408500
     14 C3           0.6850    -0.0030     2.0800 cc         1 27I      -0.405800
     15 C2           1.8160     0.0000     1.2390 cc         1 27I       0.433200
     16 N2           1.4010     0.0000     0.0000 nd         1 27I      -0.636800
     17 C4          -0.8590    -0.0020    -1.1860 c3         1 27I       0.019600
     18 C1          -0.4210    -0.0050     1.2800 cd         1 27I      -0.224300
     19 N5           2.5370    -1.5710     3.5610 nh         1 27I      -0.503300
     20 C16          2.2950    -3.0100     3.7960 c3         1 27I       0.148300
     21 C15          2.7560    -3.8510     2.6980 c3         1 27I      -0.027900
     22 C14          4.2810    -3.7180     2.4810 c3         1 27I      -0.028900
     23 C13          4.5590    -2.4260     1.7620 c3         1 27I      -0.028900
     24 C12          4.8410    -1.2500     2.7200 c3         1 27I      -0.027900
     25 C11          3.8930    -1.2440     3.9340 c3         1 27I       0.148300
     26 H1          -1.8650     2.5020     4.6530 hn         1 27I       0.203500
     27 H2          -4.2880     4.4970     6.3200 hn         1 27I       0.221467
     28 H3          -3.1360     4.7220     5.1820 hn         1 27I       0.221467
     29 H4          -2.3040     2.4740     8.1360 hn         1 27I       0.457400
     30 H5           0.2930    -0.7540     8.1460 hn         1 27I       0.294800
     31 H6           1.3430     0.6250     8.1340 hn         1 27I       0.294800
     32 H7           2.8500     0.0000     1.5630 h4         1 27I       0.029100
     33 H8          -0.2760     0.2850    -2.0540 h1         1 27I       0.026700
     34 H9          -1.2650    -0.9950    -1.3360 h1         1 27I       0.026700
     35 H10         -1.6690     0.7030    -1.0460 h1         1 27I       0.026700
     36 H11         -1.4520    -0.0070     1.6150 h4         1 27I       0.141000
     37 H12          2.8130    -3.3060     4.7010 h1         1 27I       0.018950
     38 H13          1.2320    -3.1660     3.9300 h1         1 27I       0.018950
     39 H14          2.2450    -3.5560     1.7900 hc         1 27I       0.021200
     40 H15          2.5210    -4.8840     2.9230 hc         1 27I       0.021200
     41 H16          4.7840    -3.7140     3.4400 hc         1 27I       0.022700
     42 H17          5.4210    -2.5650     1.1200 hc         1 27I       0.022700
     43 H18          4.7190    -0.3200     2.1770 hc         1 27I       0.021200
     44 H19          5.8620    -1.3240     3.0740 hc         1 27I       0.021200
     45 H20          4.2430    -1.9710     4.6560 h1         1 27I       0.018950
     46 H21          3.9050    -0.2590     4.3840 h1         1 27I       0.018950
     47 H22          4.6350    -4.5490     1.8830 hc         1 27I       0.022700
     48 H23          3.6990    -2.1780     1.1510 hc         1 27I       0.022700
     49 H93         -4.2350     3.5200     5.0140 hn         1 27I       0.221467
     50 C9          -1.1260     1.5630     6.3080 c          1 27I       0.535600
@<TRIPOS>BOND
     1     1    16 1   
     2     1    17 1   
     3     1    18 1   
     4     2    50 2   
     5     3     4 1   
     6     3    26 1   
     7     3    50 1   
     8     4     5 1   
     9     4     6 2   
    10     5    27 1   
    11     5    28 1   
    12     5    49 1   
    13     6    29 1   
    14     7     8 ar  
    15     7     9 ar  
    16     7    50 1   
    17     8    13 ar  
    18     9    10 1   
    19     9    11 ar  
    20    10    30 1   
    21    10    31 1   
    22    11    12 ar  
    23    12    13 ar  
    24    12    19 1   
    25    13    14 1   
    26    14    15 1   
    27    14    18 2   
    28    15    16 2   
    29    15    32 1   
    30    17    33 1   
    31    17    34 1   
    32    17    35 1   
    33    18    36 1   
    34    19    20 1   
    35    19    25 1   
    36    20    21 1   
    37    20    37 1   
    38    20    38 1   
    39    21    22 1   
    40    21    39 1   
    41    21    40 1   
    42    22    23 1   
    43    22    41 1   
    44    22    47 1   
    45    23    24 1   
    46    23    42 1   
    47    23    48 1   
    48    24    25 1   
    49    24    43 1   
    50    24    44 1   
    51    25    45 1   
    52    25    46 1   
@<TRIPOS>SUBSTRUCTURE
     1 27I         1 TEMP              0 ****  ****    0 ROOT
