@<TRIPOS>MOLECULE
molecule
   50    52     1     0     0
SMALL
bcc


@<TRIPOS>ATOM
      1 N1           0.0000     0.0000     0.0000 na         1 27I       0.074400
      2 O1          -1.1840     1.4870     7.5200 o          1 27I      -0.473100
      3 N7          -1.9440     2.4050     5.6460 ns         1 27I      -0.471400
      4 C10         -2.8480     3.1800     6.3440 c2         1 27I       0.517800
      5 N9          -3.6820     4.0380     5.6680 nz         1 27I      -0.809600
      6 N8          -2.9100     3.0980     7.6420 n2         1 27I      -0.685100
      7 C6          -0.1600     0.7370     5.5640 ca         1 27I       0.197500
      8 N3          -0.1710     0.7380     4.2310 nb         1 27I      -0.677000
      9 C7           0.7740    -0.0490     6.2580 ca         1 27I       0.650900
     10 N6           0.7880    -0.0470     7.6410 nv         1 27I      -1.068500
     11 N4           1.6450    -0.7930     5.5850 nb         1 27I      -0.710000
     12 C8           1.6300    -0.7960     4.2600 ca         1 27I       0.559900
     13 C5           0.6960    -0.0050     3.5630 ca         1 27I       0.429500
     14 C3           0.6850    -0.0030     2.0800 cc         1 27I      -0.379800
     15 C2           1.8160     0.0000     1.2390 cc         1 27I       0.382200
     16 N2           1.4010     0.0000     0.0000 nd         1 27I      -0.502800
     17 C4          -0.8590    -0.0020    -1.1860 c3         1 27I       0.059600
     18 C1          -0.4210    -0.0050     1.2800 cd         1 27I      -0.084300
     19 N5           2.5370    -1.5710     3.5610 nh         1 27I      -0.711300
     20 C16          2.2950    -3.0100     3.7960 c3         1 27I       0.170300
     21 C15          2.7560    -3.8510     2.6980 c3         1 27I      -0.080400
     22 C14          4.2810    -3.7180     2.4810 c3         1 27I      -0.078400
     23 C13          4.5590    -2.4260     1.7620 c3         1 27I      -0.078400
     24 C12          4.8410    -1.2500     2.7200 c3         1 27I      -0.080400
     25 C11          3.8930    -1.2440     3.9340 c3         1 27I       0.170300
     26 H1          -1.8660     2.5000     4.6530 hn         1 27I       0.356500
     27 H2          -3.2840     4.9560     5.6640 hn         1 27I       0.466800
     28 H3          -3.7970     3.7200     4.7270 hn         1 27I       0.466800
     29 H4          -3.5660     3.6590     8.1490 hn         1 27I       0.434400
     30 H5           1.3820     0.5910     8.1340 hn         1 27I       0.454300
     31 H6           0.2460    -0.7180     8.1470 hn         1 27I       0.454300
     32 H7           2.8500     0.0000     1.5630 h4         1 27I       0.070100
     33 H8          -1.5920     0.7910    -1.1020 h1         1 27I       0.060367
     34 H9          -1.3660    -0.9560    -1.2640 h1         1 27I       0.060367
     35 H10         -0.2530     0.1580    -2.0700 h1         1 27I       0.060367
     36 H11         -1.4520    -0.0070     1.6150 h4         1 27I       0.167000
     37 H12          2.8130    -3.3060     4.7010 h1         1 27I       0.045200
     38 H13          1.2320    -3.1660     3.9300 h1         1 27I       0.045200
     39 H14          2.5210    -4.8840     2.9230 hc         1 27I       0.050450
     40 H15          2.2450    -3.5560     1.7900 hc         1 27I       0.050450
     41 H16          4.6350    -4.5490     1.8830 hc         1 27I       0.048450
     42 H17          3.6990    -2.1780     1.1510 hc         1 27I       0.048450
     43 H18          4.7190    -0.3200     2.1770 hc         1 27I       0.050450
     44 H19          5.8620    -1.3240     3.0740 hc         1 27I       0.050450
     45 H20          4.2430    -1.9710     4.6560 h1         1 27I       0.045200
     46 H21          3.9050    -0.2590     4.3840 h1         1 27I       0.045200
     47 H22          4.7840    -3.7140     3.4410 hc         1 27I       0.048450
     48 H23          5.4210    -2.5650     1.1200 hc         1 27I       0.048450
     49 H93         -4.5750     4.0620     6.1210 hn         1 27I       0.466800
     50 C9          -1.1260     1.5630     6.3080 c          1 27I       0.585600
@<TRIPOS>BOND
     1    10     9 1   
     2     2    50 2   
     3     6     4 2   
     4     9    11 ar  
     5     9     7 ar  
     6    50     7 1   
     7    50     3 1   
     8    11    12 ar  
     9    24    25 1   
    10    24    23 1   
    11     7     8 ar  
    12     4     3 1   
    13     4     5 1   
    14    25    19 1   
    15    12    19 1   
    16    12    13 ar  
    17    23    22 1   
    18     8    13 ar  
    19    19    20 1   
    20    13    14 1   
    21    22    21 1   
    22    21    20 1   
    23    14    15 1   
    24    14    18 2   
    25    15    16 2   
    26    18     1 1   
    27    16     1 1   
    28     1    17 1   
    29     3    26 1   
    30     5    27 1   
    31     5    28 1   
    32     6    29 1   
    33    10    30 1   
    34    10    31 1   
    35    15    32 1   
    36    17    33 1   
    37    17    34 1   
    38    17    35 1   
    39    18    36 1   
    40    20    37 1   
    41    20    38 1   
    42    21    39 1   
    43    21    40 1   
    44    22    41 1   
    45    23    42 1   
    46    24    43 1   
    47    24    44 1   
    48    25    45 1   
    49    25    46 1   
    50    22    47 1   
    51    23    48 1   
    52    49     5 1   
@<TRIPOS>SUBSTRUCTURE
     1 27I         1 TEMP              0 ****  ****    0 ROOT
