@<TRIPOS>MOLECULE
27J
   49    50     1     0     0
SMALL
bcc


@<TRIPOS>ATOM
      1 CAO         0.0840    0.1340   -0.5470 c3        1 27J     -0.111400
      2 CAK         1.5360    0.1600   -0.1130 c3        1 27J     -0.083400
      3 CAM         1.6800   -0.1200    1.3690 c3        1 27J     -0.099400
      4 CAV         3.1130   -0.2900    1.8630 c3        1 27J      0.163100
      5 CAA         4.1820    0.2760    0.9560 c3        1 27J     -0.125100
      6 OAP         3.3840   -1.6550    2.2330 os        1 27J     -0.430900
      7 CAQ         3.4900   -2.6380    1.2940 c         1 27J      0.678700
      8 OAB         3.3020   -2.3810    0.1040 o         1 27J     -0.545000
      9 CAU         3.8240   -3.9510    1.8850 ca        1 27J     -0.181600
     10 CAS         5.1380   -4.2100    2.3250 ca        1 27J      0.203100
     11 OAD         6.0520   -3.1950    2.1880 oh        1 27J     -0.486100
     12 CAF         5.4930   -5.4520    2.8650 ca        1 27J     -0.259000
     13 CAR         4.5030   -6.4390    2.9610 ca        1 27J      0.185100
     14 OAC         4.8960   -7.6410    3.4980 oh        1 27J     -0.492100
     15 CAG         3.1910   -6.1990    2.5310 ca        1 27J     -0.256000
     16 CAT         2.8500   -4.9550    1.9940 ca        1 27J      0.041700
     17 CAL         1.4450   -4.7160    1.5530 c3        1 27J     -0.050100
     18 CAI         1.2460   -5.1020    0.0970 c3        1 27J     -0.081400
     19 CAH        -0.1880   -4.8950   -0.3560 c3        1 27J     -0.076400
     20 CAJ        -0.3770   -3.6580   -1.2110 c3        1 27J     -0.075400
     21 CAN        -0.1220   -2.3860   -0.4350 c3        1 27J     -0.081400
     22 CAW        -0.2920   -1.1430   -1.3000 c3        1 27J      0.143100
     23 OAE        -1.6620   -1.0940   -1.6890 oh        1 27J     -0.603800
     24 H1         -0.5970    0.2430    0.3370 hc        1 27J      0.042700
     25 H2         -0.1160    1.0070   -1.2240 hc        1 27J      0.042700
     26 H3          2.1270   -0.5940   -0.7000 hc        1 27J      0.057200
     27 H4          1.9730    1.1680   -0.3380 hc        1 27J      0.057200
     28 H5          1.1060   -1.0510    1.6300 hc        1 27J      0.050200
     29 H6          1.2140    0.7260    1.9410 hc        1 27J      0.050200
     30 H7          3.1970    0.2050    2.8810 h1        1 27J      0.068700
     31 H8          4.1750   -0.2250   -0.0420 hc        1 27J      0.054033
     32 H9          5.1870    0.1230    1.4190 hc        1 27J      0.054033
     33 H10         4.0080    1.3700    0.8150 hc        1 27J      0.054033
     34 H11         6.9020   -3.5060    2.5350 ho        1 27J      0.428000
     35 H12         6.5150   -5.6580    3.2080 ha        1 27J      0.158000
     36 H13         4.1280   -8.2320    3.5050 ho        1 27J      0.426000
     37 H14         2.4290   -6.9870    2.6150 ha        1 27J      0.143000
     38 H15         1.1830   -3.6310    1.6910 hc        1 27J      0.056200
     39 H16         0.7450   -5.3110    2.1990 hc        1 27J      0.056200
     40 H17         1.9460   -4.4960   -0.5390 hc        1 27J      0.054700
     41 H18         1.5260   -6.1810   -0.0320 hc        1 27J      0.054700
     42 H19        -0.5090   -5.7870   -0.9580 hc        1 27J      0.038200
     43 H20        -0.8700   -4.8380    0.5330 hc        1 27J      0.038200
     44 H21        -1.4260   -3.6390   -1.6090 hc        1 27J      0.048200
     45 H22         0.3150   -3.7030   -2.0940 hc        1 27J      0.048200
     46 H23        -0.8210   -2.3260    0.4390 hc        1 27J      0.055700
     47 H24         0.9340   -2.3930   -0.0480 hc        1 27J      0.055700
     48 H25         0.3480   -1.2360   -2.2240 h1        1 27J      0.035700
     49 H26        -1.7710   -0.2990   -2.2240 ho        1 27J      0.395000
@<TRIPOS>BOND
     1    1    2 1   
     2    1   22 1   
     3    1   24 1   
     4    1   25 1   
     5    2    3 1   
     6    2   26 1   
     7    2   27 1   
     8    3    4 1   
     9    3   28 1   
    10    3   29 1   
    11    4    5 1   
    12    4    6 1   
    13    4   30 1   
    14    5   31 1   
    15    5   32 1   
    16    5   33 1   
    17    6    7 1   
    18    7    8 2   
    19    7    9 1   
    20    9   10 ar  
    21    9   16 ar  
    22   10   11 1   
    23   10   12 ar  
    24   11   34 1   
    25   12   13 ar  
    26   12   35 1   
    27   13   14 1   
    28   13   15 ar  
    29   14   36 1   
    30   15   16 ar  
    31   15   37 1   
    32   16   17 1   
    33   17   18 1   
    34   17   38 1   
    35   17   39 1   
    36   18   19 1   
    37   18   40 1   
    38   18   41 1   
    39   19   20 1   
    40   19   42 1   
    41   19   43 1   
    42   20   21 1   
    43   20   44 1   
    44   20   45 1   
    45   21   22 1   
    46   21   46 1   
    47   21   47 1   
    48   22   23 1   
    49   22   48 1   
    50   23   49 1   
@<TRIPOS>SUBSTRUCTURE
     1 27J         1 TEMP              0 ****  ****    0 ROOT
