@<TRIPOS>MOLECULE
27K
   28    28     1     0     0
SMALL
bcc


@<TRIPOS>ATOM
      1 CAA         0.0200    0.0650    0.1430 c3        1 27K     -0.092100
      2 CAH         1.5250    0.0320    0.0800 c3        1 27K     -0.079400
      3 CAI         2.1320    0.0170    1.4660 c3        1 27K     -0.086400
      4 CAJ         3.6460   -0.0170    1.3740 c3        1 27K      0.141400
      5 OAK         4.1250   -0.0280    2.7310 os        1 27K     -0.442900
      6 CAL         5.4860   -0.0610    2.8900 c         1 27K      0.652700
      7 OAB         6.1860   -0.0770    1.8720 o         1 27K     -0.551000
      8 CAN         5.9300   -0.0720    4.2880 ca        1 27K     -0.173600
      9 CAF         7.3070   -0.1060    4.5510 ca        1 27K     -0.034000
     10 CAD         7.7690   -0.1170    5.8620 ca        1 27K     -0.205500
     11 CAM         6.8420   -0.0940    6.9160 ca        1 27K      0.158100
     12 OAC         7.2210   -0.1030    8.2350 oh        1 27K     -0.491100
     13 CAE         5.4580   -0.0600    6.6640 ca        1 27K     -0.205500
     14 CAG         5.0130   -0.0490    5.3480 ca        1 27K     -0.034000
     15 H1         -0.3330    0.9760    0.6840 hc        1 27K      0.035033
     16 H2         -0.4100    0.0760   -0.8870 hc        1 27K      0.035033
     17 H3         -0.3720   -0.8340    0.6790 hc        1 27K      0.035033
     18 H4          1.8600   -0.8770   -0.4860 hc        1 27K      0.042200
     19 H5          1.8980    0.9290   -0.4830 hc        1 27K      0.042200
     20 H6          1.7720   -0.8790    2.0360 hc        1 27K      0.053700
     21 H7          1.8120    0.9250    2.0390 hc        1 27K      0.053700
     22 H8          4.0540    0.8890    0.8540 h1        1 27K      0.052700
     23 H9          4.0140   -0.9380    0.8520 h1        1 27K      0.052700
     24 H10         8.0170   -0.1240    3.7070 ha        1 27K      0.158500
     25 H11         8.8470   -0.1440    6.0710 ha        1 27K      0.149000
     26 H12         8.1900   -0.1280    8.2710 ho        1 27K      0.425000
     27 H13         4.7530   -0.0420    7.5060 ha        1 27K      0.149000
     28 H14         3.9320   -0.0220    5.1300 ha        1 27K      0.158500
@<TRIPOS>BOND
     1    1    2 1   
     2    1   15 1   
     3    1   16 1   
     4    1   17 1   
     5    2    3 1   
     6    2   18 1   
     7    2   19 1   
     8    3    4 1   
     9    3   20 1   
    10    3   21 1   
    11    4    5 1   
    12    4   22 1   
    13    4   23 1   
    14    5    6 1   
    15    6    7 2   
    16    6    8 1   
    17    8    9 ar  
    18    8   14 ar  
    19    9   10 ar  
    20    9   24 1   
    21   10   11 ar  
    22   10   25 1   
    23   11   12 1   
    24   11   13 ar  
    25   12   26 1   
    26   13   14 ar  
    27   13   27 1   
    28   14   28 1   
@<TRIPOS>SUBSTRUCTURE
     1 27K         1 TEMP              0 ****  ****    0 ROOT
