@<TRIPOS>MOLECULE
molecule
   28    28     1     0     0
SMALL
bcc


@<TRIPOS>ATOM
      1 CAA          0.0000     0.0000     0.0000 c3         1 27K      -0.090100
      2 CAH          1.5300     0.0000     0.0000 c3         1 27K      -0.082400
      3 CAI          2.0410     0.0000     1.4420 c3         1 27K      -0.085400
      4 CAJ          3.5710     0.0010     1.4420 c3         1 27K       0.149400
      5 OAK          4.0550     0.0010     2.8110 os         1 27K      -0.431900
      6 CAL          5.3910     0.0010     2.9860 c          1 27K       0.651700
      7 OAB          6.1310     0.0020     2.0230 o          1 27K      -0.552000
      8 CAN          5.9550     0.0000     4.3490 ca         1 27K      -0.145600
      9 CAF          7.3410     0.0010     4.5340 ca         1 27K      -0.058500
     10 CAD          7.8630     0.0010     5.8080 ca         1 27K      -0.172500
     11 CAM          7.0150    -0.0000     6.9100 ca         1 27K       0.137100
     12 OAC          7.5340    -0.0000     8.1630 oh         1 27K      -0.521100
     13 CAE          5.6360     0.0010     6.7300 ca         1 27K      -0.172500
     14 CAG          5.1050     0.0050     5.4590 ca         1 27K      -0.058500
     15 H1          -0.3610    -0.0000    -1.0210 hc         1 27K       0.035700
     16 H2          -0.3610    -0.8840     0.5110 hc         1 27K       0.035700
     17 H3          -0.3610     0.8850     0.5100 hc         1 27K       0.035700
     18 H4           1.8910     0.8840    -0.5110 hc         1 27K       0.043700
     19 H5           1.8910    -0.8840    -0.5110 hc         1 27K       0.043700
     20 H6           1.6790     0.8840     1.9530 hc         1 27K       0.053200
     21 H7           1.6800    -0.8850     1.9520 hc         1 27K       0.053200
     22 H8           3.9320     0.8860     0.9320 h1         1 27K       0.050700
     23 H9           3.9330    -0.8830     0.9310 h1         1 27K       0.050700
     24 H10          8.0030     0.0010     3.6760 ha         1 27K       0.155500
     25 H11          8.9370     0.0010     5.9520 ha         1 27K       0.147000
     26 H12          7.6540    -0.8890     8.4530 ho         1 27K       0.425000
     27 H13          4.9790     0.0020     7.5900 ha         1 27K       0.147000
     28 H14          4.0310     0.0060     5.3200 ha         1 27K       0.155500
@<TRIPOS>BOND
     1     1     2 1
     2     2     3 1
     3     3     4 1
     4     4     5 1
     5     5     6 1
     6     7     6 2
     7     6     8 1
     8     8     9 ar
     9     8    14 ar
    10     9    10 ar
    11    14    13 ar
    12    10    11 ar
    13    11    13 ar
    14    11    12 1
    15     1    15 1
    16     1    16 1
    17     1    17 1
    18     2    18 1
    19     2    19 1
    20     3    20 1
    21     3    21 1
    22     4    22 1
    23     4    23 1
    24     9    24 1
    25    10    25 1
    26    12    26 1
    27    13    27 1
    28    14    28 1
@<TRIPOS>SUBSTRUCTURE
     1 27K         1 TEMP              0 ****  ****    0 ROOT
