@<TRIPOS>MOLECULE
27L
   37    37     1     0     0
SMALL
bcc


@<TRIPOS>ATOM
      1 CAA         0.0070   -0.4850    0.1150 c3        1 27L     -0.088433
      2 CAN         1.4840   -0.1150    0.0670 c3        1 27L     -0.047000
      3 CAB         2.0770   -0.2090    1.4600 c3        1 27L     -0.088433
      4 CAC         2.1870   -1.1570   -0.8120 c3        1 27L     -0.088433
      5 CAK         1.7030    1.2410   -0.6150 c3        1 27L     -0.065400
      6 CAO         1.4970    2.5760    0.1140 c3        1 27L      0.010300
      7 CAD         0.1390    2.6070    0.8050 c3        1 27L     -0.087100
      8 CAE         2.6000    2.8130    1.1450 c3        1 27L     -0.087100
      9 CAM         1.5650    3.7180   -0.8860 ca        1 27L     -0.101300
     10 CAI         1.9330    3.5410   -2.2260 ca        1 27L     -0.095000
     11 CAG         1.9900    4.6130   -3.1120 ca        1 27L     -0.184500
     12 CAL         1.6780    5.9010   -2.6530 ca        1 27L      0.118100
     13 OAF         1.7460    6.9220   -3.5740 oh        1 27L     -0.498100
     14 CAH         1.3230    6.1070   -1.3130 ca        1 27L     -0.184500
     15 CAJ         1.2750    5.0190   -0.4470 ca        1 27L     -0.095000
     16 H1         -0.1060   -1.5460    0.4480 hc        1 27L      0.034256
     17 H2         -0.4540   -0.3820   -0.8960 hc        1 27L      0.034256
     18 H3         -0.5540    0.1610    0.8290 hc        1 27L      0.034256
     19 H4          1.4720    0.3740    2.1950 hc        1 27L      0.034256
     20 H5          3.1260    0.1740    1.4640 hc        1 27L      0.034256
     21 H6          2.0890   -1.2760    1.7960 hc        1 27L      0.034256
     22 H7          1.8090   -1.0970   -1.8600 hc        1 27L      0.034256
     23 H8          1.9920   -2.1840   -0.4210 hc        1 27L      0.034256
     24 H9          3.2890   -0.9830   -0.8160 hc        1 27L      0.034256
     25 H10         2.7640    1.2490   -0.9930 hc        1 27L      0.041200
     26 H11         1.0190    1.2430   -1.5100 hc        1 27L      0.041200
     27 H12        -0.6670    2.3390    0.0800 hc        1 27L      0.037033
     28 H13        -0.0800    3.6180    1.2220 hc        1 27L      0.037033
     29 H14         0.1220    1.8820    1.6540 hc        1 27L      0.037033
     30 H15         3.5940    2.5290    0.7240 hc        1 27L      0.037033
     31 H16         2.6360    3.8900    1.4370 hc        1 27L      0.037033
     32 H17         2.4180    2.2170    2.0700 hc        1 27L      0.037033
     33 H18         2.1980    2.5470   -2.6190 ha        1 27L      0.135000
     34 H19         2.2760    4.4650   -4.1620 ha        1 27L      0.140000
     35 H20         1.5100    7.7440   -3.1220 ho        1 27L      0.418000
     36 H21         1.0880    7.1170   -0.9500 ha        1 27L      0.140000
     37 H22         1.0100    5.2010    0.6060 ha        1 27L      0.135000
@<TRIPOS>BOND
     1    1    2 1   
     2    1   16 1   
     3    1   17 1   
     4    1   18 1   
     5    2    3 1   
     6    2    4 1   
     7    2    5 1   
     8    3   19 1   
     9    3   20 1   
    10    3   21 1   
    11    4   22 1   
    12    4   23 1   
    13    4   24 1   
    14    5    6 1   
    15    5   25 1   
    16    5   26 1   
    17    6    7 1   
    18    6    8 1   
    19    6    9 1   
    20    7   27 1   
    21    7   28 1   
    22    7   29 1   
    23    8   30 1   
    24    8   31 1   
    25    8   32 1   
    26    9   10 ar  
    27    9   15 ar  
    28   10   11 ar  
    29   10   33 1   
    30   11   12 ar  
    31   11   34 1   
    32   12   13 1   
    33   12   14 ar  
    34   13   35 1   
    35   14   15 ar  
    36   14   36 1   
    37   15   37 1   
@<TRIPOS>SUBSTRUCTURE
     1 27L         1 TEMP              0 ****  ****    0 ROOT
