@<TRIPOS>MOLECULE
molecule
   37    37     1     0     0
SMALL
bcc


@<TRIPOS>ATOM
      1 CAA          0.0000     0.0000     0.0000 c3         1 27L      -0.090767
      2 CAN          1.5300     0.0000     0.0000 c3         1 27L      -0.069000
      3 CAB          2.0410     0.0000     1.4420 c3         1 27L      -0.090767
      4 CAC          2.0400    -1.2500    -0.7210 c3         1 27L      -0.090767
      5 CAK          2.0410     1.2490    -0.7220 c3         1 27L      -0.067400
      6 CAO          1.6560     2.4940     0.0800 c3         1 27L      -0.018700
      7 CAD          0.2710     2.2950     0.6990 c3         1 27L      -0.097100
      8 CAE          2.6830     2.7230     1.1900 c3         1 27L      -0.097100
      9 CAM          1.6290     3.6920    -0.8350 ca         1 27L      -0.075300
     10 CAI          1.9240     3.5410    -2.1770 ca         1 27L      -0.118000
     11 CAG          1.9000     4.6370    -3.0170 ca         1 27L      -0.150000
     12 CAL          1.5800     5.8890    -2.5130 ca         1 27L       0.097100
     13 OAF          1.5560     6.9700    -3.3380 oh         1 27L      -0.523100
     14 CAH          1.2850     6.0380    -1.1660 ca         1 27L      -0.150000
     15 CAJ          1.3050     4.9380    -0.3310 ca         1 27L      -0.118000
     16 H1          -0.3610    -0.9920    -0.2440 hc         1 27L       0.037256
     17 H2          -0.3610     0.2850     0.9810 hc         1 27L       0.037256
     18 H3          -0.3610     0.7070    -0.7370 hc         1 27L       0.037256
     19 H4           1.5150     0.7570     2.0110 hc         1 27L       0.037256
     20 H5           3.1020     0.2150     1.4490 hc         1 27L       0.037256
     21 H6           1.8660    -0.9720     1.8870 hc         1 27L       0.037256
     22 H7           1.6430    -1.2730    -1.7290 hc         1 27L       0.037256
     23 H8           1.7150    -2.1340    -0.1850 hc         1 27L       0.037256
     24 H9           3.1220    -1.2290    -0.7600 hc         1 27L       0.037256
     25 H10          1.5960     1.3030    -1.7080 hc         1 27L       0.048200
     26 H11          3.1190     1.1970    -0.8150 hc         1 27L       0.048200
     27 H12         -0.0290     3.2010     1.2110 hc         1 27L       0.042700
     28 H13          0.3060     1.4750     1.4070 hc         1 27L       0.042700
     29 H14         -0.4440     2.0670    -0.0820 hc         1 27L       0.042700
     30 H15          2.2250     2.5280     2.1520 hc         1 27L       0.042700
     31 H16          3.5240     2.0540     1.0480 hc         1 27L       0.042700
     32 H17          3.0290     3.7490     1.1560 hc         1 27L       0.042700
     33 H18          2.1740     2.5640    -2.5710 ha         1 27L       0.138000
     34 H19          2.1310     4.5190    -4.0690 ha         1 27L       0.138500
     35 H20          0.6900     7.0730    -3.6970 ho         1 27L       0.417000
     36 H21          1.0330     7.0150    -0.7700 ha         1 27L       0.138500
     37 H22          1.0750     5.0530     0.7210 ha         1 27L       0.138000
@<TRIPOS>BOND
     1     4     2 1   
     2     7     6 1   
     3     1     2 1   
     4     2     5 1   
     5     2     3 1   
     6     5     6 1   
     7     6     8 1   
     8     6     9 1   
     9     9    15 ar  
    10     9    10 ar  
    11    15    14 ar  
    12    10    11 ar  
    13    14    12 ar  
    14    11    12 ar  
    15    12    13 1   
    16     1    16 1   
    17     1    17 1   
    18     1    18 1   
    19     3    19 1   
    20     3    20 1   
    21     3    21 1   
    22     4    22 1   
    23     4    23 1   
    24     4    24 1   
    25     5    25 1   
    26     5    26 1   
    27     7    27 1   
    28     7    28 1   
    29     7    29 1   
    30     8    30 1   
    31     8    31 1   
    32     8    32 1   
    33    10    33 1   
    34    11    34 1   
    35    13    35 1   
    36    14    36 1   
    37    15    37 1   
@<TRIPOS>SUBSTRUCTURE
     1 27L         1 TEMP              0 ****  ****    0 ROOT
