@<TRIPOS>MOLECULE
27M
   28    29     1     0     0
SMALL
bcc


@<TRIPOS>ATOM
      1 OAD         0.0770    0.2800    0.6790 oh        1 27M     -0.499100
      2 CAO         1.3710    0.0410    0.2790 ca        1 27M      0.186100
      3 CAJ         2.4340    0.0390    1.1900 ca        1 27M     -0.249000
      4 CAM         3.7290   -0.1880    0.7040 ca        1 27M      0.172100
      5 OAB         4.7370   -0.1810    1.6380 oh        1 27M     -0.495100
      6 CAF         3.9650   -0.4040   -0.6620 ca        1 27M     -0.249000
      7 CAH         2.8920   -0.4000   -1.5470 ca        1 27M     -0.025000
      8 CAQ         1.5880   -0.1850   -1.0940 ca        1 27M     -0.213100
      9 CAL         0.4620   -0.2080   -2.0600 c         1 27M      0.633300
     10 OAA        -0.1750   -1.2320   -2.3100 o         1 27M     -0.492100
     11 CAR         0.1610    1.0950   -2.7010 ca        1 27M     -0.213100
     12 CAI        -0.7140    1.9890   -2.0770 ca        1 27M     -0.025000
     13 CAG        -1.0300    3.2090   -2.6640 ca        1 27M     -0.249000
     14 CAN        -0.4590    3.5430   -3.9020 ca        1 27M      0.172100
     15 OAC        -0.7260    4.7280   -4.5450 oh        1 27M     -0.495100
     16 CAK         0.4290    2.6740   -4.5510 ca        1 27M     -0.249000
     17 CAP         0.7330    1.4520   -3.9370 ca        1 27M      0.186100
     18 OAE         1.6130    0.5590   -4.5020 oh        1 27M     -0.499100
     19 H1          0.0650    0.3260    1.6470 ho        1 27M      0.427000
     20 H2          2.2700    0.2090    2.2620 ha        1 27M      0.155000
     21 H3          5.5720   -0.3570    1.1780 ho        1 27M      0.424000
     22 H4          4.9860   -0.5780   -1.0280 ha        1 27M      0.140000
     23 H5          3.0610   -0.5640   -2.6250 ha        1 27M      0.155000
     24 H6         -1.1500    1.7130   -1.1020 ha        1 27M      0.155000
     25 H7         -1.7220    3.9030   -2.1670 ha        1 27M      0.140000
     26 H8         -1.3530    5.2280   -4.0020 ho        1 27M      0.424000
     27 H9          0.8670    2.9540   -5.5170 ha        1 27M      0.155000
     28 H10         1.8540    0.8900   -5.3810 ho        1 27M      0.427000
@<TRIPOS>BOND
     1    1    2 1   
     2    1   19 1   
     3    2    3 ar  
     4    2    8 ar  
     5    3    4 ar  
     6    3   20 1   
     7    4    5 1   
     8    4    6 ar  
     9    5   21 1   
    10    6    7 ar  
    11    6   22 1   
    12    7    8 ar  
    13    7   23 1   
    14    8    9 1   
    15    9   10 2   
    16    9   11 1   
    17   11   12 ar  
    18   11   17 ar  
    19   12   13 ar  
    20   12   24 1   
    21   13   14 ar  
    22   13   25 1   
    23   14   15 1   
    24   14   16 ar  
    25   15   26 1   
    26   16   17 ar  
    27   16   27 1   
    28   17   18 1   
    29   18   28 1   
@<TRIPOS>SUBSTRUCTURE
     1 27M         1 TEMP              0 ****  ****    0 ROOT
