@<TRIPOS>MOLECULE
molecule
   28    29     1     0     0
SMALL
bcc


@<TRIPOS>ATOM
      1 OAD          0.0000     0.0000     0.0000 oh         1 27M      -0.487100
      2 CAO          1.3570     0.0000     0.0000 ca         1 27M       0.177600
      3 CAJ          2.0520     0.0000     1.1970 ca         1 27M      -0.239500
      4 CAM          3.4400     0.0000     1.1930 ca         1 27M       0.155100
      5 OAB          4.1190    -0.0010     2.3670 oh         1 27M      -0.522600
      6 CAF          4.1380     0.0000    -0.0120 ca         1 27M      -0.188500
      7 CAH          3.4610     0.0010    -1.2030 ca         1 27M      -0.048000
      8 CAQ          2.0630    -0.0040    -1.2140 ca         1 27M      -0.194100
      9 CAL          1.3320    -0.0090    -2.4930 c          1 27M       0.603300
     10 OAA          1.2620    -1.0320    -3.1490 o          1 27M      -0.497100
     11 CAR          0.6890     1.2230    -2.9790 ca         1 27M      -0.194100
     12 CAI          0.8620     2.4260    -2.2860 ca         1 27M      -0.048000
     13 CAG          0.2610     3.5720    -2.7390 ca         1 27M      -0.188500
     14 CAN         -0.5220     3.5450    -3.8900 ca         1 27M       0.155100
     15 OAC         -1.1130     4.6850    -4.3310 oh         1 27M      -0.522600
     16 CAK         -0.7020     2.3590    -4.5870 ca         1 27M      -0.239500
     17 CAP         -0.0970     1.1970    -4.1420 ca         1 27M       0.177600
     18 OAE         -0.2670     0.0360    -4.8240 oh         1 27M      -0.487100
     19 H1          -0.3150    -0.6870     0.5650 ho         1 27M       0.425500
     20 H2           1.5130     0.0260     2.1360 ha         1 27M       0.148000
     21 H3           4.3210    -0.8880     2.6130 ho         1 27M       0.426000
     22 H4           5.2210     0.0030    -0.0070 ha         1 27M       0.146000
     23 H5           4.0100    -0.0010    -2.1370 ha         1 27M       0.148500
     24 H6           1.4700     2.4520    -1.3910 ha         1 27M       0.148500
     25 H7           0.3970     4.5020    -2.2010 ha         1 27M       0.146000
     26 H8          -1.9800     4.7510    -3.9670 ho         1 27M       0.426000
     27 H9          -1.3110     2.3450    -5.4820 ha         1 27M       0.148000
     28 H10         -0.3260     0.2200    -5.7470 ho         1 27M       0.425500
@<TRIPOS>BOND
     1     5     4 1   
     2     3     4 ar  
     3     3     2 ar  
     4     4     6 ar  
     5     1     2 1   
     6     2     8 ar  
     7     6     7 ar  
     8     8     7 ar  
     9     8     9 1   
    10    10     9 2   
    11     9    11 1   
    12    11    12 ar  
    13    11    17 ar  
    14    18    17 1   
    15    12    13 ar  
    16    17    16 ar  
    17    13    14 ar  
    18    16    14 ar  
    19    14    15 1   
    20     1    19 1   
    21     3    20 1   
    22     5    21 1   
    23     6    22 1   
    24     7    23 1   
    25    12    24 1   
    26    13    25 1   
    27    15    26 1   
    28    16    27 1   
    29    18    28 1   
@<TRIPOS>SUBSTRUCTURE
     1 27M         1 TEMP              0 ****  ****    0 ROOT
