@<TRIPOS>MOLECULE
27N
   30    31     1     0     0
SMALL
bcc


@<TRIPOS>ATOM
      1 CAJ         0.0710    0.1010   -0.0480 ca        1 27N     -0.073750
      2 CAF         1.4600    0.1910   -0.0330 ca        1 27N     -0.186500
      3 CAN         2.1320    0.2350    1.1960 ca        1 27N      0.135100
      4 OAA         3.5000    0.3220    1.2940 oh        1 27N     -0.494600
      5 CAG         1.4180    0.1880    2.4050 ca        1 27N     -0.186500
      6 CAK         0.0320    0.0980    2.3670 ca        1 27N     -0.073750
      7 CAP        -0.6570    0.0580    1.1450 ca        1 27N     -0.128300
      8 CAR        -2.1510   -0.0620    1.1580 c3        1 27N      0.044900
      9 CAS        -2.8360    1.3230    1.1150 c3        1 27N      0.269200
     10 CLD        -4.5840    1.1370    0.9240 cl        1 27N     -0.122067
     11 CLE        -2.5480    2.1510    2.6610 cl        1 27N     -0.122067
     12 CLC        -2.2330    2.3680   -0.1740 cl        1 27N     -0.122067
     13 CAQ        -2.6510   -1.0300    0.1290 ca        1 27N     -0.128300
     14 CAL        -2.9060   -2.3480    0.5460 ca        1 27N     -0.073750
     15 CAH        -3.3540   -3.3120   -0.3470 ca        1 27N     -0.186500
     16 CAO        -3.5590   -2.9550   -1.6900 ca        1 27N      0.135100
     17 OAB        -4.0050   -3.9480   -2.5300 oh        1 27N     -0.494600
     18 CAI        -3.3120   -1.6460   -2.1240 ca        1 27N     -0.186500
     19 CAM        -2.8590   -0.6960   -1.2130 ca        1 27N     -0.073750
     20 H1         -0.4570    0.0610   -1.0140 ha        1 27N      0.140250
     21 H2          2.0230    0.2260   -0.9760 ha        1 27N      0.145000
     22 H3          3.8630    0.3510    0.3970 ho        1 27N      0.421000
     23 H4          1.9610    0.2230    3.3600 ha        1 27N      0.145000
     24 H5         -0.5300    0.0650    3.3140 ha        1 27N      0.140250
     25 H6         -2.4450   -0.4910    2.1700 hc        1 27N      0.085700
     26 H7         -2.7470   -2.6280    1.5990 ha        1 27N      0.140250
     27 H8         -3.5520   -4.3430   -0.0220 ha        1 27N      0.145000
     28 H9         -4.1150   -3.5660   -3.4130 ho        1 27N      0.421000
     29 H10        -3.4770   -1.3690   -3.1750 ha        1 27N      0.145000
     30 H11        -2.6760    0.3310   -1.5670 ha        1 27N      0.140250
@<TRIPOS>BOND
     1    1    2 ar  
     2    1    7 ar  
     3    1   20 1   
     4    2    3 ar  
     5    2   21 1   
     6    3    4 1   
     7    3    5 ar  
     8    4   22 1   
     9    5    6 ar  
    10    5   23 1   
    11    6    7 ar  
    12    6   24 1   
    13    7    8 1   
    14    8    9 1   
    15    8   13 1   
    16    8   25 1   
    17    9   10 1   
    18    9   11 1   
    19    9   12 1   
    20   13   14 ar  
    21   13   19 ar  
    22   14   15 ar  
    23   14   26 1   
    24   15   16 ar  
    25   15   27 1   
    26   16   17 1   
    27   16   18 ar  
    28   17   28 1   
    29   18   19 ar  
    30   18   29 1   
    31   19   30 1   
@<TRIPOS>SUBSTRUCTURE
     1 27N         1 TEMP              0 ****  ****    0 ROOT
