@<TRIPOS>MOLECULE
molecule
   30    31     1     0     0
SMALL
bcc


@<TRIPOS>ATOM
      1 CAJ          0.0000     0.0000     0.0000 ca         1 27N      -0.099250
      2 CAF          1.3810     0.0000     0.0000 ca         1 27N      -0.153750
      3 CAN          2.0730     0.0000     1.2020 ca         1 27N       0.114600
      4 OAA          3.4320     0.0010     1.2060 oh         1 27N      -0.521100
      5 CAG          1.3760    -0.0010     2.4020 ca         1 27N      -0.153750
      6 CAK         -0.0060    -0.0010     2.3960 ca         1 27N      -0.099250
      7 CAP         -0.6930     0.0040     1.1960 ca         1 27N      -0.110800
      8 CAR         -2.2000     0.0040     1.1920 c3         1 27N       0.034900
      9 CAS         -2.7080     1.3990     0.8220 c3         1 27N       0.281200
     10 ClD         -4.5000     1.3510     0.6240 cl         1 27N      -0.119400
     11 ClE         -2.2800     2.5620     2.1310 cl         1 27N      -0.119400
     12 ClC         -1.9480     1.9250    -0.7250 cl         1 27N      -0.119400
     13 CAQ         -2.7000    -0.9980     0.1840 ca         1 27N      -0.110800
     14 CAL         -2.5440    -2.3520     0.4200 ca         1 27N      -0.099250
     15 CAH         -3.0020    -3.2720    -0.5030 ca         1 27N      -0.153750
     16 CAO         -3.6180    -2.8370    -1.6680 ca         1 27N       0.114600
     17 OAB         -4.0690    -3.7400    -2.5770 oh         1 27N      -0.521100
     18 CAI         -3.7730    -1.4790    -1.9020 ca         1 27N      -0.153750
     19 CAM         -3.3180    -0.5620    -0.9740 ca         1 27N      -0.099250
     20 H1          -0.5410     0.0020    -0.9390 ha         1 27N       0.144500
     21 H2           1.9240    -0.0030    -0.9380 ha         1 27N       0.143750
     22 H3           3.7480    -0.8870     1.2060 ho         1 27N       0.420500
     23 H4           1.9140    -0.0030     3.3420 ha         1 27N       0.143750
     24 H5          -0.5510    -0.0000     3.3320 ha         1 27N       0.144500
     25 H6          -2.5630    -0.2640     2.1770 hc         1 27N       0.094700
     26 H7          -2.0630    -2.6910     1.3300 ha         1 27N       0.144500
     27 H8          -2.8810    -4.3320    -0.3180 ha         1 27N       0.143750
     28 H9          -3.3850    -3.9300    -3.1980 ho         1 27N       0.420500
     29 H10         -4.2550    -1.1370    -2.8090 ha         1 27N       0.143750
     30 H11         -3.4380     0.4990    -1.1570 ha         1 27N       0.144500
@<TRIPOS>BOND
     1    10     9 1
     2    11     9 1
     3     9    12 1
     4     9     8 1
     5    15    14 ar
     6    15    16 ar
     7    17    16 1
     8    14    13 ar
     9    16    18 ar
    10    13     8 1
    11    13    19 ar
    12    18    19 ar
    13     8     7 1
    14     7     1 ar
    15     7     6 ar
    16     1     2 ar
    17     2     3 ar
    18     6     5 ar
    19     3     5 ar
    20     3     4 1
    21     1    20 1
    22     2    21 1
    23     4    22 1
    24     5    23 1
    25     6    24 1
    26     8    25 1
    27    14    26 1
    28    15    27 1
    29    17    28 1
    30    18    29 1
    31    19    30 1
@<TRIPOS>SUBSTRUCTURE
     1 27N         1 TEMP              0 ****  ****    0 ROOT
