@<TRIPOS>MOLECULE
molecule
   42    44     1     0     0
SMALL
bcc


@<TRIPOS>ATOM
      1 C4           0.0000     0.0000     0.0000 ca         1 27O      -0.107000
      2 C5           1.3940     0.0000     0.0000 ca         1 27O      -0.105000
      3 C6           2.0940     0.0000     1.1670 ca         1 27O      -0.116300
      4 C7           3.6010     0.0000     1.1450 c3         1 27O      -0.017400
      5 C8           4.1000     1.1810     0.3090 c3         1 27O      -0.071900
      6 C10          6.1300    -0.1280    -0.3270 c3         1 27O      -0.079400
      7 C13          1.4050     0.0010     2.3920 ca         1 27O      -0.023000
      8 C15          1.3930    -0.0050     4.7840 ca         1 27O      -0.139000
      9 C17         -0.7020     0.0040     3.6160 ca         1 27O      -0.090000
     10 C2          -2.7070    -1.2820     0.5570 c          1 27O       0.895600
     11 O           -4.0260    -1.5010     0.4370 o          1 27O      -0.839300
     12 C1          -2.2080     0.0130     1.1440 c3         1 27O      -0.147400
     13 C           -2.7010     1.1840     0.2920 c3         1 27O      -0.059100
     14 C3          -0.7010     0.0060     1.1670 ca         1 27O       0.002700
     15 C18         -0.0130     0.0020     2.3920 ca         1 27O      -0.033000
     16 C16         -0.0010    -0.0040     4.7830 ca         1 27O      -0.161000
     17 C14          2.0940    -0.0020     3.6170 ca         1 27O      -0.135000
     18 C12          4.1020    -1.3080     0.5320 c3         1 27O      -0.071900
     19 C11          5.6320    -1.3090     0.5100 c3         1 27O      -0.081900
     20 C9           5.6300     1.1800     0.2870 c3         1 27O      -0.081900
     21 H1          -0.5330    -0.0000    -0.9430 ha         1 27O       0.145000
     22 H2           1.9280    -0.0050    -0.9430 ha         1 27O       0.113000
     23 H3           3.9810     0.0910     2.1560 hc         1 27O       0.050700
     24 H4           3.7470     2.1060     0.7470 hc         1 27O       0.047200
     25 H5           7.2130    -0.1290    -0.3390 hc         1 27O       0.033200
     26 H6           5.7520    -0.2190    -1.3380 hc         1 27O       0.033200
     27 H7           1.9260    -0.0110     5.7270 ha         1 27O       0.107000
     28 H8          -1.7850     0.0050     3.6310 ha         1 27O       0.147000
     29 H10         -2.5830     0.1200     2.1550 hc         1 27O       0.046700
     30 H11         -3.7400     1.3850     0.5220 hc         1 27O       0.023033
     31 H12         -2.1070     2.0630     0.5080 hc         1 27O       0.023033
     32 H13         -2.6060     0.9320    -0.7570 hc         1 27O       0.023033
     33 H14         -0.5350    -0.0060     5.7250 ha         1 27O       0.112000
     34 H15          3.1770    -0.0030     3.6320 ha         1 27O       0.119000
     35 H16          3.7510    -2.1420     1.1260 hc         1 27O       0.047200
     36 H17          3.7280    -1.3970    -0.4810 hc         1 27O       0.047200
     37 H18          5.9850    -2.2350     0.0720 hc         1 27O       0.033200
     38 H19          6.0060    -1.2160     1.5220 hc         1 27O       0.033200
     39 H20          5.9820     2.0140    -0.3080 hc         1 27O       0.033200
     40 H21          3.7250     1.0880    -0.7030 hc         1 27O       0.047200
     41 H22          6.0040     1.2690     1.3000 hc         1 27O       0.033200
     42 O1          -1.9190    -2.0830     0.1120 o          1 27O      -0.839300
@<TRIPOS>BOND
     1     8    16 ar  
     2     8    17 ar  
     3    16     9 ar  
     4    17     7 ar  
     5     9    15 ar  
     6     7    15 ar  
     7     7     3 ar  
     8    15    14 ar  
     9     4     5 1   
    10     4     3 1   
    11     4    18 1   
    12    42    10 1   
    13     6    19 1   
    14     6    20 1   
    15     5    20 1   
    16    19    18 1   
    17     3     2 ar  
    18    10    11 1   
    19    10    12 1   
    20    14    12 1   
    21    14     1 ar  
    22    12    13 1   
    23     2     1 ar  
    24     1    21 1   
    25     2    22 1   
    26     4    23 1   
    27     5    24 1   
    28     6    25 1   
    29     6    26 1   
    30     8    27 1   
    31     9    28 1   
    32    12    29 1   
    33    13    30 1   
    34    13    31 1   
    35    13    32 1   
    36    16    33 1   
    37    17    34 1   
    38    18    35 1   
    39    18    36 1   
    40    19    37 1   
    41    19    38 1   
    42    20    39 1   
    43     5    40 1   
    44    20    41 1   
@<TRIPOS>SUBSTRUCTURE
     1 27O         1 TEMP              0 ****  ****    0 ROOT
