@<TRIPOS>MOLECULE
27O
   42    42     1     0     0
SMALL
bcc


@<TRIPOS>ATOM
      1 C4         -0.0340    0.2130    0.0120 ca        1 27O     -0.206000
      2 C5          1.4010    0.1210    0.0170 ca        1 27O     -0.061000
      3 C6          2.1120    0.2070    1.1690 ca        1 27O     -0.143000
      4 C7          3.6030    0.0820    1.1950 c3        1 27O     -0.031000
      5 C8          4.2650    1.2730    0.5840 c2        1 27O     -0.136000
      6 C10         6.0610   -0.0780   -0.4770 c3        1 27O     -0.122000
      7 C13         1.3940    0.4420    2.4250 ca        1 27O      0.008000
      8 C15        -0.4790   -1.1420    5.9110 c1        1 27O      0.157000
      9 C17        -0.6060   -0.5820    3.4980 c2        1 27O     -0.063000
     10 C2         -2.9170   -1.0880    1.1350 c2        1 27O      0.346000
     11 O          -3.2580   -1.6070    2.2360 o         1 27O     -0.560000
     12 C1         -2.2230    0.3160    1.2110 c3        1 27O     -0.174000
     13 C          -2.7580    1.1970    0.1050 c3        1 27O     -0.184000
     14 C3         -0.7440    0.1860    1.1720 ca        1 27O      0.044000
     15 C18        -0.0130    0.0110    2.4360 ca        1 27O     -0.072000
     16 C16         0.0650   -0.8940    4.7400 c2        1 27O     -0.431000
     17 C14         1.9470    1.0730    3.4760 c2        1 27O     -0.269000
     18 C12         4.0650   -1.2110    0.5260 c3        1 27O     -0.151000
     19 C11         5.5710   -1.2340    0.3740 c3        1 27O     -0.157000
     20 C9          5.3800    1.1980   -0.1490 c2        1 27O     -0.195000
     21 H1         -0.5430    0.2780   -0.9600 ha        1 27O      0.141000
     22 H2          1.9030   -0.0130   -0.9540 ha        1 27O      0.115000
     23 H3          5.1480   -1.8970    3.8120 ha        1 27O      0.000000
     24 H4          3.9490    0.0350    2.2730 hc        1 27O      0.096000
     25 H5          5.8820   -0.3100   -1.5630 hc        1 27O      0.075500
     26 H6          7.1690    0.0410   -0.3450 hc        1 27O      0.075500
     27 H7          2.9860    1.4210    3.4800 ha        1 27O      0.107500
     28 H8          1.1780   -0.9440    4.6850 ha        1 27O      0.190000
     29 H10        -2.5170    0.7650    2.2010 hc        1 27O      0.088000
     30 H11        -2.1500    2.1280   -0.0020 hc        1 27O      0.063333
     31 H12        -2.7510    0.6410   -0.8650 hc        1 27O      0.063333
     32 H13        -3.8130    1.4820    0.3320 hc        1 27O      0.063333
     33 H14        -1.6680   -0.9160    3.4150 ha        1 27O      0.214000
     34 H15         1.3720    1.3070    4.3800 ha        1 27O      0.107500
     35 H16         4.8430   -1.8490    3.2080 ha        1 27O      0.000000
     36 H17         3.7320   -2.0830    1.1480 hc        1 27O      0.088500
     37 H18         3.5840   -1.3130   -0.4810 hc        1 27O      0.088500
     38 H19         5.8880   -2.2020   -0.0920 hc        1 27O      0.073000
     39 H20         6.0460   -1.1780    1.3890 hc        1 27O      0.073000
     40 H21         5.8440    2.1020   -0.5720 ha        1 27O      0.110000
     41 H22         3.7760    2.2380    0.7910 ha        1 27O      0.127000
     42 O1         -3.1170   -1.6000    0.0030 o         1 27O     -0.560000
@<TRIPOS>BOND
     1    1    2 1   
     2    1   14 1   
     3    1   21 1   
     4    2    3 1   
     5    2   22 1   
     6    3    4 1   
     7    3    7 1   
     8    4    5 1   
     9    4   18 1   
    10    4   24 1   
    11    5   20 1   
    12    5   41 1   
    13    6   19 1   
    14    6   20 1   
    15    6   25 1   
    16    6   26 1   
    17    7   15 1   
    18    7   17 1   
    19    8   16 1   
    20    9   15 1   
    21    9   16 1   
    22    9   33 1   
    23   10   11 1   
    24   10   12 1   
    25   10   42 1   
    26   12   13 1   
    27   12   14 1   
    28   12   29 1   
    29   13   30 1   
    30   13   31 1   
    31   13   32 1   
    32   14   15 1   
    33   16   28 1   
    34   17   27 1   
    35   17   34 1   
    36   18   19 1   
    37   18   36 1   
    38   18   37 1   
    39   19   38 1   
    40   19   39 1   
    41   20   40 1   
    42   23   35 1   
@<TRIPOS>SUBSTRUCTURE
     1 27O         1 TEMP              0 ****  ****    0 ROOT
