@<TRIPOS>MOLECULE
27P
   44    46     1     0     0
SMALL
bcc


@<TRIPOS>ATOM
      1 CAR          0.0000     0.0000     0.0000 c3         1 27P       0.145800
      2 CAS          1.5440     0.0000     0.0000 c3         1 27P      -0.027400
      3 CAU          1.9450     0.0000     1.4900 c3         1 27P      -0.027400
      4 CAT          0.6090     0.0010     2.2640 c3         1 27P       0.145800
      5 NAA         -0.3740    -0.5810     1.3150 n3         1 27P      -0.541600
      6 CAB         -1.7470    -0.2080     1.6840 c3         1 27P       0.150800
      7 CAC         -2.1840    -1.0160     2.9070 c3         1 27P       0.200400
      8 OAD         -1.3780    -0.6530     4.0310 os         1 27P      -0.307900
      9 CAE         -1.6390    -1.2850     5.2060 ca         1 27P       0.151100
     10 CAJ         -0.8950    -0.9820     6.3370 ca         1 27P      -0.174500
     11 CAI         -1.1620    -1.6240     7.5300 ca         1 27P      -0.053500
     12 CAF         -2.6530    -2.2280     5.2780 ca         1 27P      -0.174500
     13 CAG         -2.9150    -2.8680     6.4730 ca         1 27P      -0.053500
     14 CAH         -2.1690    -2.5680     7.5980 ca         1 27P      -0.130300
     15 CAK         -2.4580    -3.2680     8.9010 c3         1 27P       0.095200
     16 CAL         -3.4860    -2.4840     9.6760 ca         1 27P      -0.084300
     17 CAM         -4.8320    -2.7490     9.5020 ca         1 27P      -0.097500
     18 CAN         -5.7740    -2.0300    10.2120 ca         1 27P      -0.098500
     19 CAO         -5.3710    -1.0460    11.0960 ca         1 27P      -0.105000
     20 CAP         -4.0250    -0.7830    11.2710 ca         1 27P      -0.098500
     21 CAQ         -3.0830    -1.5060    10.5630 ca         1 27P      -0.097500
     22 HAR         -0.3760     1.0120    -0.0850 h1         1 27P       0.017200
     23 HARA        -0.3760    -0.6190    -0.8050 h1         1 27P       0.017200
     24 HAS          1.9190     0.8910    -0.4890 hc         1 27P       0.016700
     25 HASA         1.9190    -0.8910    -0.4890 hc         1 27P       0.016700
     26 HAU          2.5140    -0.8920     1.7250 hc         1 27P       0.016700
     27 HAUA         2.5150     0.8910     1.7240 hc         1 27P       0.016700
     28 HAT          0.6880    -0.6160     3.1510 h1         1 27P       0.017200
     29 HATA         0.3270     1.0140     2.5250 h1         1 27P       0.017200
     30 HAB         -1.7830     0.8490     1.9190 h1         1 27P       0.017700
     31 HABA        -2.4130    -0.4170     0.8560 h1         1 27P       0.017700
     32 HAC         -3.2240    -0.8060     3.1260 h1         1 27P       0.008700
     33 HACA        -2.0640    -2.0730     2.7030 h1         1 27P       0.008700
     34 HAJ         -0.1060    -0.2420     6.2850 ha         1 27P       0.117000
     35 HAI         -0.5800    -1.3890     8.4130 ha         1 27P       0.104000
     36 HAF         -3.2380    -2.4640     4.3970 ha         1 27P       0.117000
     37 HAG         -3.7060    -3.6070     6.5290 ha         1 27P       0.104000
     38 HAK         -2.8380    -4.2630     8.7000 hc         1 27P       0.020700
     39 HAKA        -1.5460    -3.3410     9.4820 hc         1 27P       0.020700
     40 HAM         -5.1480    -3.5190     8.8090 ha         1 27P       0.104000
     41 HAN         -6.8280    -2.2360    10.0760 ha         1 27P       0.101000
     42 HAO         -6.1090    -0.4810    11.6520 ha         1 27P       0.101000
     43 HAP         -3.7080    -0.0140    11.9650 ha         1 27P       0.101000
     44 HAQ         -2.0280    -1.3000    10.7000 ha         1 27P       0.104000
@<TRIPOS>BOND
     1     1     2 1   
     2     1     5 1   
     3     1    22 1   
     4     1    23 1   
     5     2     3 1   
     6     2    24 1   
     7     2    25 1   
     8     3     4 1   
     9     3    26 1   
    10     3    27 1   
    11     4     5 1   
    12     4    28 1   
    13     4    29 1   
    14     5     6 1   
    15     6     7 1   
    16     6    30 1   
    17     6    31 1   
    18     7     8 1   
    19     7    32 1   
    20     7    33 1   
    21     8     9 1   
    22     9    10 ar  
    23     9    12 ar  
    24    10    11 ar  
    25    10    34 1   
    26    11    14 ar  
    27    11    35 1   
    28    12    13 ar  
    29    12    36 1   
    30    13    14 ar  
    31    13    37 1   
    32    14    15 1   
    33    15    16 1   
    34    15    38 1   
    35    15    39 1   
    36    16    17 ar  
    37    16    21 ar  
    38    17    18 ar  
    39    17    40 1   
    40    18    19 ar  
    41    18    41 1   
    42    19    20 ar  
    43    19    42 1   
    44    20    21 ar  
    45    20    43 1   
    46    21    44 1   
@<TRIPOS>SUBSTRUCTURE
     1 27P         1 TEMP              0 ****  ****    0 ROOT
