@<TRIPOS>MOLECULE
molecule
   57    56     1     0     0
SMALL
bcc


@<TRIPOS>ATOM
      1 OAH          0.0000     0.0000     0.0000 o          1 27Q      -0.910167
      2 PAX          1.6100     0.0000     0.0000 p5         1 27Q       1.179900
      3 OAI          2.1460     0.0000     1.5180 o          1 27Q      -0.910167
      4 OAF          2.1030    -1.2090    -0.6980 o          1 27Q      -0.910167
      5 OAS          2.1470     1.3140    -0.7590 os         1 27Q      -0.585200
      6 CAP          3.5320     1.5530    -1.0160 c3         1 27Q       0.229400
      7 CAW          3.6920     2.8850    -1.7510 c3         1 27Q      -0.070000
      8 CAB          2.9290     2.8340    -3.0750 c3         1 27Q      -0.067100
      9 CAC          3.1330     4.0150    -0.8830 c3         1 27Q      -0.067100
     10 CAV          5.1760     3.1400    -2.0260 c3         1 27Q       0.088100
     11 OAG          5.8660     3.3220    -0.7890 oh         1 27Q      -0.550800
     12 CAU          5.7600     1.9610    -2.7600 c          1 27Q       0.645100
     13 OAE          6.5730     1.2480    -2.2110 o          1 27Q      -0.587100
     14 NAR          5.3780     1.6980    -4.0250 ns         1 27Q      -0.600900
     15 CAN          5.8720     0.4980    -4.7050 c3         1 27Q       0.128000
     16 CAO          5.2930     0.4370    -6.1200 c3         1 27Q      -0.176400
     17 CAT          5.8000    -0.7980    -6.8180 c          1 27Q       0.663100
     18 OAD          6.5520    -1.5550    -6.2420 o          1 27Q      -0.595100
     19 NAQ          5.4190    -1.0610    -8.0840 ns         1 27Q      -0.599900
     20 CAM          5.9120    -2.2610    -8.7630 c3         1 27Q       0.115000
     21 CAL          5.3320    -2.3210   -10.1770 c3         1 27Q      -0.101400
     22 CAK          5.8480    -3.5750   -10.8880 c3         1 27Q      -0.078400
     23 CAJ          5.2680    -3.6350   -12.3020 c3         1 27Q      -0.082400
     24 CAA          5.7840    -4.8890   -13.0120 c3         1 27Q      -0.081400
     25 CAY          5.2040    -4.9490   -14.4260 c3         1 27Q      -0.084400
     26 CAZ          5.7200    -6.2030   -15.1360 c3         1 27Q      -0.092100
     27 H3           3.9290     0.7520    -1.6300 h1         1 27Q       0.030200
     28 H4           4.0730     1.5900    -0.0780 h1         1 27Q       0.030200
     29 H5           1.8960     3.1140    -2.9070 hc         1 27Q       0.028533
     30 H6           3.3800     3.5220    -3.7790 hc         1 27Q       0.028533
     31 H7           2.9700     1.8280    -3.4760 hc         1 27Q       0.028533
     32 H8           3.5180     3.9200     0.1260 hc         1 27Q       0.028533
     33 H9           2.0520     3.9550    -0.8640 hc         1 27Q       0.028533
     34 H10          3.4350     4.9700    -1.2950 hc         1 27Q       0.028533
     35 H11          5.2820     4.0320    -2.6330 h1         1 27Q       0.005700
     36 H12          6.5570     3.9530    -0.9040 ho         1 27Q       0.373000
     37 H13          4.7980     2.3480    -4.5180 hn         1 27Q       0.306500
     38 H14          5.5660    -0.3820    -4.1520 h1         1 27Q       0.071200
     39 H15          6.9530     0.5320    -4.7590 h1         1 27Q       0.071200
     40 H16          4.2110     0.4030    -6.0660 hc         1 27Q       0.060200
     41 H17          5.5990     1.3170    -6.6730 hc         1 27Q       0.060200
     42 H18          4.7980    -0.4360    -8.5600 hn         1 27Q       0.307500
     43 H19          5.6070    -3.1400    -8.2100 h1         1 27Q       0.051700
     44 H20          6.9940    -2.2260    -8.8180 h1         1 27Q       0.051700
     45 H21          4.2510    -2.3570   -10.1230 hc         1 27Q       0.043200
     46 H22          5.6370    -1.4410   -10.7310 hc         1 27Q       0.043200
     47 H23          6.9300    -3.5390   -10.9420 hc         1 27Q       0.045700
     48 H24          5.5430    -4.4550   -10.3340 hc         1 27Q       0.045700
     49 H25          5.5740    -2.7560   -12.8550 hc         1 27Q       0.040700
     50 H26          4.1870    -3.6700   -12.2470 hc         1 27Q       0.040700
     51 H27          5.4780    -5.7690   -12.4580 hc         1 27Q       0.042200
     52 H28          6.8650    -4.8550   -13.0660 hc         1 27Q       0.042200
     53 H29          4.1230    -4.9840   -14.3720 hc         1 27Q       0.038700
     54 H30          5.5100    -4.0700   -14.9790 hc         1 27Q       0.038700
     55 H31          5.4200    -7.0830   -14.5790 hc         1 27Q       0.030033
     56 H32          5.3030    -6.2500   -16.1350 hc         1 27Q       0.030033
     57 H33          6.8000    -6.1650   -15.1970 hc         1 27Q       0.030033
@<TRIPOS>BOND
     1     4     2 1   
     2     3     2 1   
     3     2     1 1   
     4     2     5 1   
     5    11    10 1   
     6    10    12 1   
     7    10     7 1   
     8     5     6 1   
     9    13    12 2   
    10    12    14 1   
    11    14    15 1   
    12    15    16 1   
    13     6     7 1   
    14     7     8 1   
    15     7     9 1   
    16    18    17 2   
    17    16    17 1   
    18    17    19 1   
    19    19    20 1   
    20    20    21 1   
    21    21    22 1   
    22    22    23 1   
    23    23    24 1   
    24    24    25 1   
    25    25    26 1   
    26     6    27 1   
    27     6    28 1   
    28     8    29 1   
    29     8    30 1   
    30     8    31 1   
    31     9    32 1   
    32     9    33 1   
    33     9    34 1   
    34    10    35 1   
    35    11    36 1   
    36    14    37 1   
    37    15    38 1   
    38    15    39 1   
    39    16    40 1   
    40    16    41 1   
    41    19    42 1   
    42    20    43 1   
    43    20    44 1   
    44    21    45 1   
    45    21    46 1   
    46    22    47 1   
    47    22    48 1   
    48    23    49 1   
    49    23    50 1   
    50    24    51 1   
    51    24    52 1   
    52    25    53 1   
    53    25    54 1   
    54    26    55 1   
    55    26    56 1   
    56    26    57 1   
@<TRIPOS>SUBSTRUCTURE
     1 27Q         1 TEMP              0 ****  ****    0 ROOT
