@<TRIPOS>MOLECULE
27Q
   57    56     1     0     0
SMALL
bcc


@<TRIPOS>ATOM
      1 OAH          0.0000     0.0000     0.0000 o          1 27Q      -0.754833
      2 PAX          1.6100     0.0000     0.0000 p5         1 27Q       0.665900
      3 OAI          2.1460     0.0000     1.5180 o          1 27Q      -0.754833
      4 OAF          2.1030    -1.2090    -0.6980 o          1 27Q      -0.754833
      5 OAS          2.1470     1.3140    -0.7590 os         1 27Q      -0.481200
      6 CAP          3.5320     1.5530    -1.0160 c3         1 27Q       0.284400
      7 CAW          3.6920     2.8850    -1.7510 c3         1 27Q      -0.099000
      8 CAB          2.9290     2.8340    -3.0750 c3         1 27Q       0.016900
      9 CAC          3.1330     4.0150    -0.8830 c3         1 27Q       0.016900
     10 CAV          5.1760     3.1400    -2.0260 c3         1 27Q       0.135100
     11 OAG          5.8660     3.3220    -0.7890 oh         1 27Q      -0.527800
     12 CAU          5.7600     1.9610    -2.7600 c          1 27Q       0.567100
     13 OAE          6.5730     1.2480    -2.2110 o          1 27Q      -0.627100
     14 NAR          5.3780     1.6980    -4.0250 ns         1 27Q      -0.236900
     15 CAN          5.8720     0.4980    -4.7050 c3         1 27Q       0.066000
     16 CAO          5.2930     0.4370    -6.1200 c3         1 27Q      -0.109400
     17 CAT          5.8000    -0.7980    -6.8180 c          1 27Q       0.580100
     18 OAD          6.5520    -1.5550    -6.2420 o          1 27Q      -0.630100
     19 NAQ          5.4190    -1.0610    -8.0840 ns         1 27Q      -0.221900
     20 CAM          5.9120    -2.2610    -8.7630 c3         1 27Q       0.054000
     21 CAL          5.3320    -2.3210   -10.1770 c3         1 27Q      -0.043400
     22 CAK          5.8480    -3.5750   -10.8880 c3         1 27Q      -0.023400
     23 CAJ          5.2680    -3.6350   -12.3020 c3         1 27Q      -0.029400
     24 CAA          5.7840    -4.8890   -13.0120 c3         1 27Q      -0.029400
     25 CAY          5.2040    -4.9490   -14.4260 c3         1 27Q      -0.028400
     26 CAZ          5.7200    -6.2030   -15.1360 c3         1 27Q       0.005900
     27 H3           3.9290     0.7520    -1.6300 h1         1 27Q      -0.011300
     28 H4           4.0730     1.5900    -0.0780 h1         1 27Q      -0.011300
     29 H5           1.8960     3.1140    -2.9070 hc         1 27Q      -0.002633
     30 H6           3.3800     3.5220    -3.7790 hc         1 27Q      -0.002633
     31 H7           2.9700     1.8280    -3.4760 hc         1 27Q      -0.002633
     32 H8           3.5180     3.9200     0.1260 hc         1 27Q      -0.002633
     33 H9           2.0520     3.9550    -0.8640 hc         1 27Q      -0.002633
     34 H10          3.4350     4.9700    -1.2950 hc         1 27Q      -0.002633
     35 H11          5.2820     4.0320    -2.6330 h1         1 27Q      -0.029300
     36 H12          6.5570     3.9530    -0.9040 ho         1 27Q       0.351000
     37 H13          4.7980     2.3480    -4.5180 hn         1 27Q       0.178500
     38 H14          5.5660    -0.3820    -4.1520 h1         1 27Q       0.042200
     39 H15          6.9530     0.5320    -4.7590 h1         1 27Q       0.042200
     40 H16          4.2110     0.4030    -6.0660 hc         1 27Q       0.026700
     41 H17          5.5990     1.3170    -6.6730 hc         1 27Q       0.026700
     42 H18          4.7980    -0.4360    -8.5600 hn         1 27Q       0.170500
     43 H19          5.6070    -3.1400    -8.2100 h1         1 27Q       0.025200
     44 H20          6.9940    -2.2260    -8.8180 h1         1 27Q       0.025200
     45 H21          4.2510    -2.3570   -10.1230 hc         1 27Q       0.014700
     46 H22          5.6370    -1.4410   -10.7310 hc         1 27Q       0.014700
     47 H23          6.9300    -3.5390   -10.9420 hc         1 27Q       0.018200
     48 H24          5.5430    -4.4550   -10.3340 hc         1 27Q       0.018200
     49 H25          5.5740    -2.7560   -12.8550 hc         1 27Q       0.013700
     50 H26          4.1870    -3.6700   -12.2470 hc         1 27Q       0.013700
     51 H27          5.4780    -5.7690   -12.4580 hc         1 27Q       0.015200
     52 H28          6.8650    -4.8550   -13.0660 hc         1 27Q       0.015200
     53 H29          4.1230    -4.9840   -14.3720 hc         1 27Q       0.011200
     54 H30          5.5100    -4.0700   -14.9790 hc         1 27Q       0.011200
     55 H31          5.4200    -7.0830   -14.5790 hc         1 27Q      -0.001967
     56 H32          5.3030    -6.2500   -16.1350 hc         1 27Q      -0.001967
     57 H33          6.8000    -6.1650   -15.1970 hc         1 27Q      -0.001967
@<TRIPOS>BOND
     1     1     2 1   
     2     2     3 1   
     3     2     4 1   
     4     2     5 1   
     5     5     6 1   
     6     6     7 1   
     7     6    27 1   
     8     6    28 1   
     9     7     8 1   
    10     7     9 1   
    11     7    10 1   
    12     8    29 1   
    13     8    30 1   
    14     8    31 1   
    15     9    32 1   
    16     9    33 1   
    17     9    34 1   
    18    10    11 1   
    19    10    12 1   
    20    10    35 1   
    21    11    36 1   
    22    12    13 2   
    23    12    14 1   
    24    14    15 1   
    25    14    37 1   
    26    15    16 1   
    27    15    38 1   
    28    15    39 1   
    29    16    17 1   
    30    16    40 1   
    31    16    41 1   
    32    17    18 2   
    33    17    19 1   
    34    19    20 1   
    35    19    42 1   
    36    20    21 1   
    37    20    43 1   
    38    20    44 1   
    39    21    22 1   
    40    21    45 1   
    41    21    46 1   
    42    22    23 1   
    43    22    47 1   
    44    22    48 1   
    45    23    24 1   
    46    23    49 1   
    47    23    50 1   
    48    24    25 1   
    49    24    51 1   
    50    24    52 1   
    51    25    26 1   
    52    25    53 1   
    53    25    54 1   
    54    26    55 1   
    55    26    56 1   
    56    26    57 1   
@<TRIPOS>SUBSTRUCTURE
     1 27Q         1 TEMP              0 ****  ****    0 ROOT
