@<TRIPOS>MOLECULE
molecule
   31    32     1     0     0
SMALL
bcc


@<TRIPOS>ATOM
      1 C4           0.0000     0.0000     0.0000 ca         1 27R       0.002100
      2 C5           1.3850     0.0000     0.0000 ca         1 27R      -0.126500
      3 C6           2.0770     0.0000     1.1930 ca         1 27R      -0.070500
      4 C7           1.3780     0.1220     4.9550 ca         1 27R      -0.270600
      5 C8           1.1880    -1.0000     5.7680 ca         1 27R      -0.076000
      6 C10          0.0030     0.3510     7.3540 ca         1 27R      -0.071000
      7 C13         -1.7210     3.0180     6.3830 c          1 27R       0.886600
      8 O2          -2.1920     2.1780     5.6530 o          1 27R      -0.842800
      9 O1          -2.4030     4.1450     6.6380 o          1 27R      -0.842800
     10 C11          0.1820     1.4680     6.5650 ca         1 27R      -0.084300
     11 C9           0.5050    -0.8790     6.9570 ca         1 27R      -0.197000
     12 C14          0.8690     1.3670     5.3610 ca         1 27R       0.249600
     13 N            1.0500     2.4890     4.5640 nv         1 27R      -0.908200
     14 C1           1.3780     0.0000     2.4020 ca         1 27R      -0.168600
     15 Br          -0.9400    -0.0000    -1.6410 br         1 27R      -0.119100
     16 C3          -0.6980    -0.0060     1.1950 ca         1 27R      -0.126500
     17 C2          -0.0180     0.0000     2.3950 ca         1 27R      -0.070500
     18 H1           1.9260    -0.0000    -0.9390 ha         1 27R       0.144000
     19 H2           3.1600    -0.0000     1.1920 ha         1 27R       0.166000
     20 H3           1.5780    -1.9630     5.4620 ha         1 27R       0.114000
     21 H4          -0.5340     0.4360     8.2920 ha         1 27R       0.128000
     22 H6           0.3060     3.5890     6.6980 hc         1 27R       0.039700
     23 H7          -0.4620     2.8100     8.0870 hc         1 27R       0.039700
     24 H8           0.3580    -1.7490     7.5850 ha         1 27R       0.112000
     25 H9           1.6680     2.4500     3.7770 hn         1 27R       0.434800
     26 H10          0.5830     3.3450     4.7910 hn         1 27R       0.434800
     27 H11         -1.7820    -0.0060     1.1880 ha         1 27R       0.144000
     28 H12         -0.5650    -0.0020     3.3290 ha         1 27R       0.166000
     29 C            2.1140     0.0010     3.6840 c          1 27R       0.607300
     30 C12         -0.3670     2.8000     7.0080 c3         1 27R      -0.149100
     31 O            3.3250    -0.0990     3.6890 o          1 27R      -0.543100
@<TRIPOS>BOND
     1    16    17 ar  
     2    16     1 ar  
     3    17    14 ar  
     4    31    29 2   
     5    15     1 1   
     6     1     2 ar  
     7    14    29 1   
     8    14     3 ar  
     9    29     4 1   
    10     2     3 ar  
    11    13    12 1   
    12     4    12 ar  
    13     4     5 ar  
    14    12    10 ar  
    15     5    11 ar  
    16    10    30 1   
    17    10     6 ar  
    18    30     7 1   
    19     7     8 1   
    20     7     9 1   
    21    11     6 ar  
    22     2    18 1   
    23     3    19 1   
    24     5    20 1   
    25     6    21 1   
    26    30    22 1   
    27    30    23 1   
    28    11    24 1   
    29    13    25 1   
    30    13    26 1   
    31    16    27 1   
    32    17    28 1   
@<TRIPOS>SUBSTRUCTURE
     1 27R         1 TEMP              0 ****  ****    0 ROOT
