@<TRIPOS>MOLECULE
molecule
   48    49     1     0     0
SMALL
bcc


@<TRIPOS>ATOM
      1 OAG          0.0000     0.0000     0.0000 o          1 27S      -0.330100
      2 CAT          1.2160     0.0000     0.0000 c          1 27S       0.708500
      3 NAM          1.9440     0.0000     1.0870 ne         1 27S      -0.666100
      4 CAS          3.2560    -0.0010     1.0460 c2         1 27S       0.472100
      5 NAD          4.0860    -0.0010     2.1290 nz         1 27S      -0.713600
      6 SAP          3.7550    -0.0010    -0.6030 ss         1 27S      -0.165300
      7 CAY          2.0550    -0.0070    -1.2550 c3         1 27S      -0.015700
      8 CAX          1.8030     1.2550    -2.0700 c3         1 27S       0.145700
      9 NAN          2.8720     1.4240    -3.0580 ns         1 27S      -0.584900
     10 CAQ          3.1640     2.6520    -3.5330 c          1 27S       0.659100
     11 OAE          2.5420     3.6160    -3.1420 o          1 27S      -0.610100
     12 CAC          4.2630     2.8250    -4.5490 c3         1 27S      -0.170100
     13 CAI          1.8130    -1.2390    -2.0660 c2         1 27S      -0.268200
     14 CAU          1.1480    -1.2390    -3.2050 ce         1 27S      -0.019400
     15 CAR          0.9680    -2.5190    -3.9040 c          1 27S       0.860800
     16 OAH          0.2940    -2.5590    -5.0710 o          1 27S      -0.802800
     17 OAF          1.4260    -3.5400    -3.4310 o          1 27S      -0.802800
     18 CAL          0.5670    -0.0020    -3.8250 c3         1 27S      -0.073200
     19 CAW          0.4530     1.1130    -2.7850 c3         1 27S       0.116100
     20 OAO         -0.5600     0.7810    -1.8350 os         1 27S      -0.403600
     21 CAV         -1.8620     1.2570    -2.1820 c3         1 27S       0.144100
     22 CAK         -2.9040     0.1910    -1.8360 c3         1 27S      -0.096400
     23 CAB         -2.6840    -1.0410    -2.7160 c3         1 27S      -0.092100
     24 CAJ         -2.1640     2.5370    -1.4000 c3         1 27S      -0.096400
     25 CAA         -1.2000     3.6410    -1.8370 c3         1 27S      -0.092100
     26 H2           3.8070    -0.7230     2.7630 hn         1 27S       0.470800
     27 H3           1.7740     2.1130    -1.4090 h1         1 27S       0.078700
     28 H4           3.4150     0.6340    -3.3470 hn         1 27S       0.331500
     29 H5           5.1940     2.4520    -4.1400 hc         1 27S       0.065367
     30 H6           4.0150     2.2720    -5.4470 hc         1 27S       0.065367
     31 H7           4.3700     3.8760    -4.7900 hc         1 27S       0.065367
     32 H8           2.2040    -2.1810    -1.6990 ha         1 27S       0.171000
     33 H10         -0.4190    -0.2280    -4.2140 hc         1 27S       0.088200
     34 H11          1.2090     0.3280    -4.6330 hc         1 27S       0.088200
     35 H12          0.2050     2.0450    -3.2790 h1         1 27S       0.067700
     36 H13         -1.8990     1.4660    -3.2440 h1         1 27S       0.043700
     37 H14         -3.8970     0.5870    -2.0100 hc         1 27S       0.046450
     38 H15         -2.8030    -0.0870    -0.7940 hc         1 27S       0.046450
     39 H16         -2.4890    -0.7270    -3.7350 hc         1 27S       0.038700
     40 H17         -3.5700    -1.6640    -2.6940 hc         1 27S       0.038700
     41 H18         -1.8370    -1.6050    -2.3440 hc         1 27S       0.038700
     42 H19         -2.0420     2.3500    -0.3400 hc         1 27S       0.046450
     43 H20         -3.1820     2.8480    -1.5970 hc         1 27S       0.046450
     44 H21         -1.6000     4.6050    -1.5490 hc         1 27S       0.038700
     45 H22         -0.2390     3.4910    -1.3590 hc         1 27S       0.038700
     46 H23         -1.0770     3.6080    -2.9130 hc         1 27S       0.038700
     47 H1           4.0330     0.8860     2.5900 hn         1 27S       0.470800
     48 HAD3         5.0260    -0.1650     1.8280 hn         1 27S       0.470800
@<TRIPOS>BOND
     1     5     4 1   
     2    22    21 1   
     3    22    23 1   
     4    12    10 1   
     5    24    21 1   
     6    24    25 1   
     7    21    20 1   
     8     6     4 1   
     9     6     7 1   
    10     4     3 2   
    11     9    10 1   
    12     9     8 1   
    13    10    11 2   
    14    20    19 1   
    15    19     8 1   
    16    19    18 1   
    17     3     2 1   
    18     8     7 1   
    19     7     2 1   
    20     7    13 1   
    21    18    14 1   
    22     2     1 2   
    23    13    14 2   
    24    14    15 1   
    25    15    17 1   
    26    15    16 1   
    27     5    26 1   
    28     8    27 1   
    29     9    28 1   
    30    12    29 1   
    31    12    30 1   
    32    12    31 1   
    33    13    32 1   
    34    18    33 1   
    35    18    34 1   
    36    19    35 1   
    37    21    36 1   
    38    22    37 1   
    39    22    38 1   
    40    23    39 1   
    41    23    40 1   
    42    23    41 1   
    43    24    42 1   
    44    24    43 1   
    45    25    44 1   
    46    25    45 1   
    47    25    46 1   
    48     5    47 1   
    49    48     5 1   
@<TRIPOS>SUBSTRUCTURE
     1 27S         1 TEMP              0 ****  ****    0 ROOT
