@<TRIPOS>MOLECULE
27U
   55    57     1     0     0
SMALL
bcc


@<TRIPOS>ATOM
      1 C3           0.0000     0.0000     0.0000 c          1 27U       0.615100
      2 O1           1.2140     0.0000     0.0000 o          1 27U      -0.637100
      3 C2          -0.7520     0.0000     1.3050 c3         1 27U      -0.092400
      4 C1           0.2420     0.0000     2.4680 c3         1 27U       0.044900
      5 C17         -0.5120     0.0000     3.7740 ca         1 27U      -0.100300
      6 C18         -0.8570    -1.1960     4.3720 ca         1 27U      -0.099000
      7 C19         -1.5480    -1.1960     5.5700 ca         1 27U      -0.098000
      8 C20         -1.8940     0.0000     6.1680 ca         1 27U      -0.101000
      9 C21         -1.5480     1.1980     5.5700 ca         1 27U      -0.098000
     10 C22         -0.8520     1.1970     4.3750 ca         1 27U      -0.099000
     11 N1          -0.6740     0.0050    -1.1660 n          1 27U      -0.147800
     12 C7          -0.0680     0.0060    -2.5060 c3         1 27U      -0.029300
     13 C8           0.7610     1.2500    -2.6930 c          1 27U       0.567100
     14 O2           0.8440     2.0640    -1.7980 o          1 27U      -0.599100
     15 C6          -1.2210    -0.0160    -3.5310 c3         1 27U      -0.032400
     16 C5          -2.4030    -0.5980    -2.7120 c3         1 27U      -0.028400
     17 C4          -2.1400     0.0050    -1.3120 c3         1 27U       0.046000
     18 N2           1.4110     1.4580    -3.8550 ns         1 27U      -0.219900
     19 C9           2.2170     2.6680    -4.0370 c3         1 27U       0.102300
     20 C10          2.8340     2.6590    -5.4130 ca         1 27U      -0.054300
     21 C15          4.0730     2.0760    -5.6080 ca         1 27U      -0.055000
     22 C14          4.6430     2.0640    -6.8650 ca         1 27U      -0.073500
     23 C13          3.9660     2.6430    -7.9390 ca         1 27U      -0.230900
     24 C16          4.5720     2.6330    -9.2910 ce         1 27U       0.210800
     25 N3           5.7380     2.0840    -9.4770 n2         1 27U      -0.486100
     26 N4           3.9010     3.2040   -10.3500 nz         1 27U       0.190400
     27 C12          2.7170     3.2290    -7.7360 ca         1 27U      -0.073500
     28 C11          2.1560     3.2290    -6.4750 ca         1 27U      -0.055000
     29 H2          -1.3750    -0.8840     1.3630 hc         1 27U       0.032700
     30 H2A         -1.3750     0.8840     1.3630 hc         1 27U       0.032700
     31 H1           0.8650     0.8840     2.4110 hc         1 27U       0.033200
     32 H1A          0.8650    -0.8850     2.4110 hc         1 27U       0.033200
     33 H18         -0.5860    -2.1350     3.9030 ha         1 27U       0.105000
     34 H19         -1.8190    -2.1350     6.0390 ha         1 27U       0.103000
     35 H20         -2.4370     0.0000     7.1050 ha         1 27U       0.104000
     36 H21         -1.8170     2.1360     6.0400 ha         1 27U       0.103000
     37 H22         -0.5810     2.1350     3.9060 ha         1 27U       0.105000
     38 H7           0.5490    -0.8760    -2.6300 h1         1 27U       0.046700
     39 H6          -0.9790    -0.6640    -4.3640 hc         1 27U       0.022200
     40 H6A         -1.4490     0.9870    -3.8700 hc         1 27U       0.022200
     41 H5          -3.3520    -0.2550    -3.1070 hc         1 27U       0.030200
     42 H5A         -2.3550    -1.6800    -2.6810 hc         1 27U       0.030200
     43 H4          -2.5220     1.0180    -1.2620 h1         1 27U       0.026200
     44 H4A         -2.5940    -0.6120    -0.5460 h1         1 27U       0.026200
     45 HN2          1.3570     0.7780    -4.5880 hn         1 27U       0.172500
     46 H9           3.0010     2.6960    -3.2900 h1         1 27U       0.042700
     47 H9A          1.5860     3.5420    -3.9310 h1         1 27U       0.042700
     48 H15          4.5970     1.6280    -4.7720 ha         1 27U       0.134000
     49 H14          5.6130     1.6080    -7.0170 ha         1 27U       0.099500
     50 HN3          6.2260     1.6690    -8.7080 hn         1 27U       0.382400
     51 HN4          3.0220     2.7430   -10.4760 hn         1 27U       0.221800
     52 HN4A         3.7450     4.1750   -10.1610 hn         1 27U       0.221800
     53 H12          2.1870     3.6780    -8.5660 ha         1 27U       0.099500
     54 H11          1.1860     3.6850    -6.3160 ha         1 27U       0.134000
     55 H43          4.4490     3.1100   -11.1820 hn         1 27U       0.221800
@<TRIPOS>BOND
     1     1     2 2   
     2     1     3 1   
     3     1    11 1   
     4     3     4 1   
     5     3    29 1   
     6     3    30 1   
     7     4     5 1   
     8     4    31 1   
     9     4    32 1   
    10     5     6 ar  
    11     5    10 ar  
    12     6     7 ar  
    13     6    33 1   
    14     7     8 ar  
    15     7    34 1   
    16     8     9 ar  
    17     8    35 1   
    18     9    10 ar  
    19     9    36 1   
    20    10    37 1   
    21    11    12 1   
    22    11    17 1   
    23    12    13 1   
    24    12    15 1   
    25    12    38 1   
    26    13    14 2   
    27    13    18 1   
    28    15    16 1   
    29    15    39 1   
    30    15    40 1   
    31    16    17 1   
    32    16    41 1   
    33    16    42 1   
    34    17    43 1   
    35    17    44 1   
    36    18    19 1   
    37    18    45 1   
    38    19    20 1   
    39    19    46 1   
    40    19    47 1   
    41    20    21 ar  
    42    20    28 ar  
    43    21    22 ar  
    44    21    48 1   
    45    22    23 ar  
    46    22    49 1   
    47    23    24 1   
    48    23    27 ar  
    49    24    25 2   
    50    24    26 1   
    51    25    50 1   
    52    26    51 1   
    53    26    52 1   
    54    26    55 1   
    55    27    28 ar  
    56    27    53 1   
    57    28    54 1   
@<TRIPOS>SUBSTRUCTURE
     1 27U         1 TEMP              0 ****  ****    0 ROOT
