@<TRIPOS>MOLECULE
molecule
   47    48     1     0     0
SMALL
bcc


@<TRIPOS>ATOM
      1 OAG          0.0000     0.0000     0.0000 o          1 27V      -0.585500
      2 CAT          1.2120     0.0000     0.0000 c          1 27V       0.709500
      3 NAM          1.9330     0.0000     1.1100 ns         1 27V      -0.484400
      4 CAS          3.3030     0.0000     1.0450 c2         1 27V       0.546800
      5 NAD          4.1230    -0.0000     2.0570 n2         1 27V      -0.853100
      6 SAP          3.7520    -0.0010    -0.6700 ss         1 27V      -0.309300
      7 CAY          2.0310    -0.0060    -1.2650 c3         1 27V       0.009300
      8 CAX          1.7640    -1.2740    -2.0710 c3         1 27V       0.146700
      9 NAN          1.7670    -2.4350    -1.1790 ns         1 27V      -0.582900
     10 CAQ          2.0540    -3.6590    -1.6650 c          1 27V       0.662100
     11 OAE          2.3110    -3.7980    -2.8420 o          1 27V      -0.588100
     12 CAC          2.0570    -4.8530    -0.7460 c3         1 27V      -0.171100
     13 CAI          1.7660     1.2200    -2.0810 c2         1 27V      -0.226200
     14 CAU          1.0710     1.2100    -3.2020 ce         1 27V      -0.075400
     15 CAR          0.8720     2.4850    -3.9060 c          1 27V       0.873800
     16 OAH          1.3420     3.5090    -3.4530 o          1 27V      -0.826800
     17 OAF          0.1660     2.5160    -5.0540 o          1 27V      -0.826800
     18 CAL          0.4730    -0.0300    -3.7970 c3         1 27V      -0.060200
     19 CAW          0.3930    -1.1400    -2.7470 c3         1 27V       0.108100
     20 OAO          0.0470    -2.3750    -3.3780 os         1 27V      -0.400600
     21 CAV         -1.3590    -2.6240    -3.4360 c3         1 27V       0.145100
     22 CAK         -1.6790    -3.4620    -4.6750 c3         1 27V      -0.094900
     23 CAB         -1.3590    -2.6520    -5.9340 c3         1 27V      -0.093600
     24 CAJ         -1.7940    -3.3840    -2.1810 c3         1 27V      -0.094900
     25 CAA         -1.5910    -2.4970    -0.9510 c3         1 27V      -0.093600
     26 H1           1.4760    -0.0000     2.0010 hn         1 27V       0.339500
     27 H2           5.1110    -0.0000     1.9000 hn         1 27V       0.427400
     28 H3           2.5310    -1.3890    -2.8280 h1         1 27V       0.108700
     29 H4           1.5940    -2.3140    -0.2000 hn         1 27V       0.303500
     30 H5           1.2750    -4.7400    -0.0050 hc         1 27V       0.053033
     31 H6           3.0170    -4.9250    -0.2500 hc         1 27V       0.053033
     32 H7           1.8800    -5.7530    -1.3230 hc         1 27V       0.053033
     33 H8           2.1660     2.1640    -1.7340 ha         1 27V       0.173000
     34 H10         -0.5250     0.1920    -4.1570 hc         1 27V       0.078700
     35 H11          1.0910    -0.3640    -4.6220 hc         1 27V       0.078700
     36 H12         -0.3530    -0.8840    -2.0050 h1         1 27V       0.070700
     37 H13         -1.8910    -1.6820    -3.4900 h1         1 27V       0.046700
     38 H14         -1.0800    -4.3650    -4.6650 hc         1 27V       0.038950
     39 H15         -2.7300    -3.7250    -4.6720 hc         1 27V       0.038950
     40 H16         -1.7150    -3.1850    -6.8070 hc         1 27V       0.037200
     41 H17         -1.8480    -1.6870    -5.8760 hc         1 27V       0.037200
     42 H18         -0.2880    -2.5100    -6.0100 hc         1 27V       0.037200
     43 H19         -2.8400    -3.6510    -2.2650 hc         1 27V       0.038950
     44 H20         -1.1990    -4.2840    -2.0800 hc         1 27V       0.038950
     45 H21         -2.1830    -2.8790    -0.1290 hc         1 27V       0.037200
     46 H22         -0.5440    -2.4990    -0.6730 hc         1 27V       0.037200
     47 H23         -1.9020    -1.4850    -1.1800 hc         1 27V       0.037200
@<TRIPOS>BOND
     1    12    10 1   
     2     1     2 2   
     3    24    21 1   
     4    24    25 1   
     5    22    21 1   
     6    22    23 1   
     7    21    20 1   
     8     3     2 1   
     9     3     4 1   
    10     2     7 1   
    11     9    10 1   
    12     9     8 1   
    13    10    11 2   
    14     5     4 2   
    15     4     6 1   
    16    20    19 1   
    17    19     8 1   
    18    19    18 1   
    19     8     7 1   
    20     7     6 1   
    21     7    13 1   
    22    18    14 1   
    23    13    14 2   
    24    14    15 1   
    25    16    15 1   
    26    15    17 1   
    27     3    26 1   
    28     5    27 1   
    29     8    28 1   
    30     9    29 1   
    31    12    30 1   
    32    12    31 1   
    33    12    32 1   
    34    13    33 1   
    35    18    34 1   
    36    18    35 1   
    37    19    36 1   
    38    21    37 1   
    39    22    38 1   
    40    22    39 1   
    41    23    40 1   
    42    23    41 1   
    43    23    42 1   
    44    24    43 1   
    45    24    44 1   
    46    25    45 1   
    47    25    46 1   
    48    25    47 1   
@<TRIPOS>SUBSTRUCTURE
     1 27V         1 TEMP              0 ****  ****    0 ROOT
