@<TRIPOS>MOLECULE
27V
   47    48     1     0     0
SMALL
bcc


@<TRIPOS>ATOM
      1 OAG          0.0000     0.0000     0.0000 o          1 27V      -0.621500
      2 CAT          1.2120     0.0000     0.0000 c          1 27V       0.613500
      3 NAM          1.9330     0.0000     1.1100 ns         1 27V      -0.104400
      4 CAS          3.3030     0.0000     1.0450 c2         1 27V       0.355800
      5 NAD          4.1230    -0.0000     2.0570 n2         1 27V      -0.669100
      6 SAP          3.7520    -0.0010    -0.6700 ss         1 27V      -0.280300
      7 CAY          2.0310    -0.0060    -1.2650 c3         1 27V       0.043300
      8 CAX          1.7640    -1.2740    -2.0710 c3         1 27V       0.047700
      9 NAN          1.7670    -2.4350    -1.1790 ns         1 27V      -0.199900
     10 CAQ          2.0540    -3.6590    -1.6650 c          1 27V       0.576100
     11 OAE          2.3110    -3.7980    -2.8420 o          1 27V      -0.624100
     12 CAC          2.0570    -4.8530    -0.7460 c3         1 27V      -0.069100
     13 CAI          1.7660     1.2200    -2.0810 c2         1 27V      -0.231200
     14 CAU          1.0710     1.2100    -3.2020 ce         1 27V      -0.070400
     15 CAR          0.8720     2.4850    -3.9060 c          1 27V       0.961800
     16 OAH          1.3420     3.5090    -3.4530 o          1 27V      -0.874800
     17 OAF          0.1660     2.5160    -5.0540 o          1 27V      -0.874800
     18 CAL          0.4730    -0.0300    -3.7970 c3         1 27V      -0.000200
     19 CAW          0.3930    -1.1400    -2.7470 c3         1 27V       0.110100
     20 OAO          0.0470    -2.3750    -3.3780 os         1 27V      -0.375600
     21 CAV         -1.3590    -2.6240    -3.4360 c3         1 27V       0.168100
     22 CAK         -1.6790    -3.4620    -4.6750 c3         1 27V      -0.046400
     23 CAB         -1.3590    -2.6520    -5.9340 c3         1 27V      -0.010600
     24 CAJ         -1.7940    -3.3840    -2.1810 c3         1 27V      -0.046400
     25 CAA         -1.5910    -2.4970    -0.9510 c3         1 27V      -0.010600
     26 H1           1.4760    -0.0000     2.0010 hn         1 27V       0.173500
     27 H2           3.7640    -0.0000     2.9920 hn         1 27V       0.316400
     28 H3           2.5310    -1.3890    -2.8280 h1         1 27V       0.086700
     29 H4           1.6010    -2.3130    -0.1990 hn         1 27V       0.164500
     30 H5           1.8630    -5.7510    -1.3210 hc         1 27V       0.016700
     31 H6           1.2870    -4.7320     0.0060 hc         1 27V       0.016700
     32 H7           3.0230    -4.9350    -0.2640 hc         1 27V       0.016700
     33 H8           2.1660     2.1640    -1.7330 ha         1 27V       0.157000
     34 H10         -0.5250     0.1920    -4.1570 hc         1 27V       0.049700
     35 H11          1.0910    -0.3640    -4.6220 hc         1 27V       0.049700
     36 H12         -0.3530    -0.8840    -2.0050 h1         1 27V       0.059700
     37 H13         -1.8910    -1.6820    -3.4900 h1         1 27V       0.024700
     38 H14         -2.7300    -3.7250    -4.6720 hc         1 27V       0.012700
     39 H15         -1.0800    -4.3650    -4.6650 hc         1 27V       0.012700
     40 H16         -1.8410    -1.6840    -5.8720 hc         1 27V       0.008867
     41 H17         -1.7230    -3.1810    -6.8060 hc         1 27V       0.008867
     42 H18         -0.2870    -2.5170    -6.0140 hc         1 27V       0.008867
     43 H19         -1.1990    -4.2840    -2.0800 hc         1 27V       0.012700
     44 H20         -2.8410    -3.6510    -2.2650 hc         1 27V       0.012700
     45 H21         -1.9180    -1.4890    -1.1750 hc         1 27V       0.008867
     46 H22         -0.5410    -2.4850    -0.6840 hc         1 27V       0.008867
     47 H23         -2.1700    -2.8890    -0.1240 hc         1 27V       0.008867
@<TRIPOS>BOND
     1     1     2 2   
     2     2     3 1   
     3     2     7 1   
     4     3     4 1   
     5     3    26 1   
     6     4     5 2   
     7     4     6 1   
     8     5    27 1   
     9     6     7 1   
    10     7     8 1   
    11     7    13 1   
    12     8     9 1   
    13     8    19 1   
    14     8    28 1   
    15     9    10 1   
    16     9    29 1   
    17    10    11 2   
    18    10    12 1   
    19    12    30 1   
    20    12    31 1   
    21    12    32 1   
    22    13    14 2   
    23    13    33 1   
    24    14    15 1   
    25    14    18 1   
    26    15    16 1   
    27    15    17 1   
    28    18    19 1   
    29    18    34 1   
    30    18    35 1   
    31    19    20 1   
    32    19    36 1   
    33    20    21 1   
    34    21    22 1   
    35    21    24 1   
    36    21    37 1   
    37    22    23 1   
    38    22    38 1   
    39    22    39 1   
    40    23    40 1   
    41    23    41 1   
    42    23    42 1   
    43    24    25 1   
    44    24    43 1   
    45    24    44 1   
    46    25    45 1   
    47    25    46 1   
    48    25    47 1   
@<TRIPOS>SUBSTRUCTURE
     1 27V         1 TEMP              0 ****  ****    0 ROOT
