@<TRIPOS>MOLECULE
molecule
   36    35     1     0     0
SMALL
bcc


@<TRIPOS>ATOM
      1 N3           0.0000     0.0000     0.0000 nz         1 27W      -0.806600
      2 C11          1.4690     0.0000     0.0000 c3         1 27W       0.095500
      3 C12          1.9790     1.2490    -0.7220 c3         1 27W      -0.106400
      4 C13          1.5580     1.1970    -2.1910 c3         1 27W      -0.090700
      5 C15          1.9410     2.5090    -2.8790 c3         1 27W      -0.092600
      6 C14          2.2680     0.0330    -2.8840 c3         1 27W      -0.092600
      7 C16          1.9800     0.0000     1.4420 c3         1 27W       0.122100
      8 O6           1.5360     1.1850     2.1050 oh         1 27W      -0.618800
      9 C17          1.4360    -1.2280     2.1750 c3         1 27W      -0.101700
     10 C23          1.8410    -1.1630     3.6490 c3         1 27W      -0.086100
     11 C18          2.0140    -2.4960     1.5440 c3         1 27W      -0.090400
     12 C44          1.3770    -3.7260     2.1930 c3         1 27W      -0.092100
     13 H33         -0.3340     0.1970    -0.9230 hn         1 27W       0.458133
     14 H34          1.8300    -0.8850    -0.5110 hx         1 27W       0.122700
     15 H35          3.0600     1.2880    -0.6570 hc         1 27W       0.087700
     16 H36          1.5580     2.1320    -0.2570 hc         1 27W       0.087700
     17 H37          0.4860     1.0560    -2.2550 hc         1 27W       0.019700
     18 H38          1.6710     2.4600    -3.9270 hc         1 27W       0.051200
     19 H39          1.4140     3.3310    -2.4090 hc         1 27W       0.051200
     20 H40          3.0090     2.6660    -2.7880 hc         1 27W       0.051200
     21 H41          3.2400    -0.1190    -2.4290 hc         1 27W       0.051200
     22 H42          1.6750    -0.8670    -2.7770 hc         1 27W       0.051200
     23 H43          2.3940     0.2600    -3.9360 hc         1 27W       0.051200
     24 H44          3.0630    -0.0290     1.4420 h1         1 27W       0.088700
     25 H45          2.2750     1.6250     2.4910 ho         1 27W       0.444000
     26 H46          0.3560    -1.2450     2.0980 hc         1 27W       0.031700
     27 H47          1.4710    -2.0410     4.1650 hc         1 27W       0.055700
     28 H48          2.9210    -1.1280     3.7250 hc         1 27W       0.055700
     29 H49          1.4190    -0.2730     4.1010 hc         1 27W       0.055700
     30 H50          3.0860    -2.5210     1.6990 hc         1 27W       0.041700
     31 H51          1.8030    -2.4990     0.4820 hc         1 27W       0.041700
     32 H52          1.4520    -4.5700     1.5190 hc         1 27W       0.048700
     33 H53          0.3340    -3.5240     2.4040 hc         1 27W       0.048700
     34 H54          1.8940    -3.9550     3.1180 hc         1 27W       0.048700
     35 H2          -0.3340    -0.8980     0.2900 hn         1 27W       0.458133
     36 H331        -0.3340     0.7000     0.6320 hn         1 27W       0.458133
@<TRIPOS>BOND
     1     9     7 1   
     2     9    11 1   
     3     9    10 1   
     4     7     8 1   
     5     7     2 1   
     6    11    12 1   
     7     4     3 1   
     8     4     6 1   
     9     4     5 1   
    10     3     2 1   
    11     2     1 1   
    12     1    13 1   
    13     2    14 1   
    14     3    15 1   
    15     3    16 1   
    16     4    17 1   
    17     5    18 1   
    18     5    19 1   
    19     5    20 1   
    20     6    21 1   
    21     6    22 1   
    22     6    23 1   
    23     7    24 1   
    24     8    25 1   
    25     9    26 1   
    26    10    27 1   
    27    10    28 1   
    28    10    29 1   
    29    11    30 1   
    30    11    31 1   
    31    12    32 1   
    32    12    33 1   
    33    12    34 1   
    34     1    35 1   
    35    36     1 1   
@<TRIPOS>SUBSTRUCTURE
     1 27W         1 TEMP              0 ****  ****    0 ROOT
