@<TRIPOS>MOLECULE
27X
   32    34     1     0     0
SMALL
bcc


@<TRIPOS>ATOM
      1 C01          0.0000     0.0000     0.0000 ca         1 27X       0.011300
      2 C02          1.3850     0.0000     0.0000 ca         1 27X      -0.123000
      3 C03          2.1660     0.0000     1.1590 ca         1 27X       0.067600
      4 C04          1.5800    -0.0010     2.4240 ca         1 27X      -0.131200
      5 C05          0.2020    -0.0010     2.4500 ca         1 27X      -0.203300
      6 C06         -0.6710    -0.0010     1.3000 ca         1 27X       0.355600
      7 N07          2.0050    -0.0000     3.7510 n          1 27X       0.235700
      8 C08          0.9480    -0.0010     4.6090 c          1 27X       0.245800
      9 C09         -0.2840    -0.0010     3.8170 ca         1 27X      -0.137000
     10 O10          1.0140    -0.0010     5.8250 o          1 27X      -0.358000
     11 C11         -1.6590    -0.0020     3.9390 ca         1 27X      -0.043300
     12 N12         -1.9730    -0.0010     1.5310 nb         1 27X      -0.463000
     13 C13          3.4080    -0.0020     4.1700 c3         1 27X       0.019600
     14 C14         -2.4440    -0.0030     2.7710 ca         1 27X       0.299800
     15 N15         -0.7230     0.0060    -1.1870 nv         1 27X      -0.535200
     16 N16          3.5520     0.0000     1.0480 nv         1 27X      -0.565200
     17 C17         -3.9140    -0.0050     2.9400 c          1 27X       0.604600
     18 O18         -4.3960    -0.0050     4.0550 o          1 27X      -0.587000
     19 O19         -4.7160    -0.0060     1.8590 os         1 27X      -0.389900
     20 C20         -6.1480    -0.0070     2.1000 c3         1 27X       0.264700
     21 H02          1.8940    -0.0000    -0.9560 ha         1 27X       0.116000
     22 H151        -0.9760    -0.8580    -1.6230 hn         1 27X       0.277800
     23 H152        -0.9720     0.8750    -1.6160 hn         1 27X       0.277800
     24 H161         4.0490     0.8670     0.9830 hn         1 27X       0.277800
     25 H162         4.0490    -0.8670     0.9830 hn         1 27X       0.277800
     26 H131         3.9000    -0.8860     3.7840 h1         1 27X       0.018367
     27 H132         3.9010     0.8830     3.7850 h1         1 27X       0.018367
     28 H133         3.4620    -0.0020     5.2520 h1         1 27X       0.018367
     29 H11         -2.1250    -0.0040     4.9160 ha         1 27X       0.143000
     30 H201        -6.4200     0.8770     2.6640 h1         1 27X       0.001367
     31 H202        -6.4180    -0.8920     2.6640 h1         1 27X       0.001367
     32 H203        -6.6740    -0.0080     1.1530 h1         1 27X       0.001367
@<TRIPOS>BOND
     1     1     2 ar  
     2     1     6 ar  
     3     1    15 1   
     4     2     3 ar  
     5     2    21 1   
     6     3     4 ar  
     7     3    16 1   
     8     4     5 ar  
     9     4     7 1   
    10     5     6 ar  
    11     5     9 ar  
    12     6    12 ar  
    13     7     8 1   
    14     7    13 1   
    15     8     9 1   
    16     8    10 2   
    17     9    11 ar  
    18    11    14 ar  
    19    11    29 1   
    20    12    14 ar  
    21    13    26 1   
    22    13    27 1   
    23    13    28 1   
    24    14    17 1   
    25    15    22 1   
    26    15    23 1   
    27    16    24 1   
    28    16    25 1   
    29    17    18 2   
    30    17    19 1   
    31    19    20 1   
    32    20    30 1   
    33    20    31 1   
    34    20    32 1   
@<TRIPOS>SUBSTRUCTURE
     1 27X         1 TEMP              0 ****  ****    0 ROOT
