@<TRIPOS>MOLECULE
27Y
   13    13     1     0     0
SMALL
bcc


@<TRIPOS>ATOM
      1 O01          0.0000     0.0000     0.0000 oh         1 27Y      -0.461100
      2 C02          1.3600     0.0000     0.0000 cc         1 27Y       0.012900
      3 C03          2.0500     0.0000     1.1790 cd         1 27Y      -0.076000
      4 C04          3.4530    -0.0010     1.1520 cd         1 27Y      -0.072300
      5 Br           4.4310    -0.0010     2.7700 br         1 27Y      -0.082700
      6 C06          4.1070    -0.0030    -0.0340 cc         1 27Y      -0.142400
      7 N07          3.4200    -0.0030    -1.2070 ns         1 27Y       0.096900
      8 C08          2.0730    -0.0070    -1.2160 c          1 27Y       0.552700
      9 O09          1.4700    -0.0070    -2.2790 o          1 27Y      -0.675500
     10 H1          -0.3140     0.8720     0.1740 ho         1 27Y       0.403000
     11 H2           1.5270    -0.1610     2.1140 ha         1 27Y       0.132000
     12 H4           5.1910    -0.0020    -0.0480 h4         1 27Y       0.137000
     13 H3           3.9200    -0.0060    -2.0740 hn         1 27Y       0.174500
@<TRIPOS>BOND
     1     1     2 1   
     2     1    10 1   
     3     2     3 2   
     4     2     8 1   
     5     3     4 1   
     6     3    11 1   
     7     4     5 1   
     8     4     6 2   
     9     6     7 1   
    10     6    12 1   
    11     7     8 1   
    12     7    13 1   
    13     8     9 2   
@<TRIPOS>SUBSTRUCTURE
     1 27Y         1 TEMP              0 ****  ****    0 ROOT
