@<TRIPOS>MOLECULE
molecule
   13    13     1     0     0
SMALL
bcc


@<TRIPOS>ATOM
      1 O01          0.0000     0.0000     0.0000 oh         1 27Y      -0.481100
      2 C02          1.3600     0.0000     0.0000 cc         1 27Y      -0.010100
      3 C03          2.0500     0.0000     1.1790 cd         1 27Y      -0.076000
      4 C04          3.4530    -0.0010     1.1520 cd         1 27Y      -0.141300
      5 Br           4.4310    -0.0010     2.7700 br         1 27Y      -0.054700
      6 C06          4.1070    -0.0030    -0.0340 cc         1 27Y       0.027600
      7 N07          3.4200    -0.0030    -1.2070 ns         1 27Y      -0.403100
      8 C08          2.0730    -0.0070    -1.2160 c          1 27Y       0.665700
      9 O09          1.4700    -0.0070    -2.2790 o          1 27Y      -0.623500
     10 H1          -0.3140     0.8720     0.1740 ho         1 27Y       0.422000
     11 H2           1.5270    -0.1610     2.1140 ha         1 27Y       0.162000
     12 H4           5.1910    -0.0020    -0.0480 h4         1 27Y       0.168000
     13 H3           3.9200    -0.0060    -2.0740 hn         1 27Y       0.345500
@<TRIPOS>BOND
     1     5     4 1
     2     6     4 2
     3     6     7 1
     4     4     3 1
     5     7     8 1
     6     3     2 2
     7     8     2 1
     8     8     9 2
     9     2     1 1
    10     1    10 1
    11     3    11 1
    12     6    12 1
    13     7    13 1
@<TRIPOS>SUBSTRUCTURE
     1 27Y         1 TEMP              0 ****  ****    0 ROOT
