@<TRIPOS>MOLECULE
molecule
   33    34     1     0     0
SMALL
bcc


@<TRIPOS>ATOM
      1 C1           0.0000     0.0000     0.0000 c          1 27Z       0.562700
      2 N1           3.5070     0.0000     0.8270 nc         1 27Z      -0.800000
      3 O1          10.5930     0.5770     2.3260 o          1 27Z      -0.507800
      4 S1           1.5540     0.0010     2.3680 ss         1 27Z      -0.194300
      5 N2           2.6280    -0.0020    -1.3810 nv         1 27Z      -0.980500
      6 O2           9.9870    -0.7960     0.3270 o          1 27Z      -0.507800
      7 S2           9.9330    -0.5260     1.7220 sy         1 27Z       1.237200
      8 N3           4.1920     0.0010     3.0990 nu         1 27Z      -0.722300
      9 N4          10.4970    -1.8840     2.4830 nz         1 27Z      -0.808500
     10 C12          1.2610     0.0010     0.6310 cd         1 27Z      -0.418000
     11 C13          2.4860     0.0000     0.0000 cc         1 27Z       0.838200
     12 C14          3.2410     0.0010     2.1010 cd         1 27Z       0.807300
     13 C15          5.5470    -0.1230     2.7740 ca         1 27Z       0.228600
     14 C16          6.5120     0.4750     3.5740 ca         1 27Z      -0.150500
     15 C17          7.8480     0.3500     3.2500 ca         1 27Z       0.001000
     16 C18          8.2260    -0.3700     2.1320 ca         1 27Z      -0.361500
     17 C19          7.2680    -0.9670     1.3340 ca         1 27Z       0.001000
     18 C20          5.9290    -0.8510     1.6550 ca         1 27Z      -0.150500
     19 O21         -0.0730    -0.0020    -1.2160 o          1 27Z      -0.455100
     20 N22         -1.1260    -0.0050     0.7420 nz         1 27Z      -0.674400
     21 HN2          2.1270    -0.6690    -1.9340 hn         1 27Z       0.477800
     22 HN2A         3.2430     0.6530    -1.8220 hn         1 27Z       0.477800
     23 HN3          3.9170     0.1440     4.0510 hn         1 27Z       0.491800
     24 HN4         11.4710    -1.9980     2.2810 hn         1 27Z       0.495133
     25 HN4A        10.3710    -1.7890     3.4710 hn         1 27Z       0.495133
     26 H16          6.2170     1.0390     4.4500 ha         1 27Z       0.177000
     27 H17          8.6020     0.8160     3.8730 ha         1 27Z       0.167500
     28 H19          7.5670    -1.5340     0.4610 ha         1 27Z       0.167500
     29 H20          5.1780    -1.3180     1.0300 ha         1 27Z       0.177000
     30 HN22        -1.9240     0.0020     0.1390 hn         1 27Z       0.478133
     31 HN2B        -1.1430     0.8060     1.3280 hn         1 27Z       0.478133
     32 H43          9.9840    -2.6820     2.1650 hn         1 27Z       0.495133
     33 H223        -1.1530    -0.8350     1.3010 hn         1 27Z       0.478133
@<TRIPOS>BOND
     1     1    10 1
     2     1    19 2
     3     1    20 1
     4     2    11 1
     5     2    12 2
     6     3     7 2
     7     4    10 1
     8     4    12 1
     9     5    11 1
    10     6     7 2
    11     7     9 1
    12     7    16 1
    13     8    12 1
    14     8    13 1
    15    10    11 2
    16    13    14 ar
    17    13    18 ar
    18    14    15 ar
    19    15    16 ar
    20    16    17 ar
    21    17    18 ar
    22     5    21 1
    23     5    22 1
    24     8    23 1
    25     9    24 1
    26     9    25 1
    27    14    26 1
    28    15    27 1
    29    17    28 1
    30    18    29 1
    31    20    30 1
    32    20    31 1
    33    32     9 1
    34    33    20 1
@<TRIPOS>SUBSTRUCTURE
     1 27Z         1 TEMP              0 ****  ****    0 ROOT
