@<TRIPOS>MOLECULE
molecule
   14    14     1     0     0
SMALL
bcc


@<TRIPOS>ATOM
      1 C1           0.0000     0.0000     0.0000 c3         1 280       0.027600
      2 N2           1.4660     0.0000     0.0000 na         1 280      -0.169900
      3 C3           2.2630     0.0000     1.0810 cc         1 280       0.431400
      4 N4           3.5160    -0.0010     0.6990 nd         1 280      -0.711000
      5 C5           3.5830    -0.0030    -0.6310 cd         1 280       0.413200
      6 C6           2.2870    -0.0070    -1.1130 cc         1 280      -0.367200
      7 C7           1.8840    -0.0160    -2.4690 c          1 280       0.610500
      8 O8           2.7190    -0.0220    -3.3510 o          1 280      -0.526100
      9 H11         -0.3610     0.8840    -0.5120 h1         1 280       0.058033
     10 H12         -0.3610     0.0010     1.0210 h1         1 280       0.058033
     11 H13         -0.3610    -0.8850    -0.5100 h1         1 280       0.058033
     12 H3           1.9230     0.0020     2.1090 h5         1 280       0.067100
     13 H5           4.4880    -0.0050    -1.2260 h4         1 280       0.062100
     14 H7           0.8300     0.0100    -2.7210 h4         1 280      -0.012800
@<TRIPOS>BOND
     1     1     2 1
     2     2     3 1
     3     2     6 1
     4     3     4 2
     5     4     5 1
     6     5     6 2
     7     6     7 1
     8     7     8 2
     9     1     9 1
    10     1    10 1
    11     1    11 1
    12     3    12 1
    13     5    13 1
    14     7    14 1
@<TRIPOS>SUBSTRUCTURE
     1 280         1 TEMP              0 ****  ****    0 ROOT
