@<TRIPOS>MOLECULE
molecule
   57    59     1     0     0
SMALL
bcc


@<TRIPOS>ATOM
      1 C35          0.0000     0.0000     0.0000 ca         1 281       0.050000
      2 N42          1.3230     0.0000     0.0000 nc         1 281      -0.362500
      3 S41          1.8410     0.0000     1.4670 ss         1 281       0.680000
      4 N40          0.4880    -0.0010     2.2360 nc         1 281      -0.401500
      5 C36         -0.5120     0.0010     1.3680 ca         1 281      -0.053000
      6 C37         -1.9150     0.0020     1.5670 ca         1 281      -0.035000
      7 C38         -2.7480     0.0020     0.4970 ca         1 281      -0.163000
      8 C39         -2.2600     0.0020    -0.8090 ca         1 281       0.009000
      9 C34         -0.9290    -0.0040    -1.0700 ca         1 281      -0.212500
     10 S32         -0.3570    -0.0120    -2.7360 sy         1 281       1.428200
     11 O33          0.6590    -1.0030    -2.8060 o          1 281      -0.663300
     12 O32         -1.5170    -0.0280    -3.5580 o          1 281      -0.663300
     13 N31          0.3870     1.4420    -3.0050 n7         1 281      -0.848100
     14 C27          1.6250     1.7740    -2.2970 c3         1 281       0.050300
     15 C28          2.7540     1.9770    -3.3090 c3         1 281      -0.065700
     16 C30          3.0620     0.6480    -4.0030 c3         1 281      -0.094600
     17 C29          2.3240     3.0100    -4.3520 c3         1 281      -0.094600
     18 P24          1.3850     3.3060    -1.3390 p5         1 281       0.990400
     19 O25          0.3340     3.0370    -0.1500 o          1 281      -0.788500
     20 O26          0.8630     4.3680    -2.2290 o          1 281      -0.788500
     21 C15          2.9790     3.8370    -0.6320 c3         1 281      -0.241600
     22 C1           2.8040     5.1880     0.0640 c3         1 281      -0.116400
     23 C2           2.6960     6.2770    -0.9710 c          1 281       0.896600
     24 O14          2.5360     7.5540    -0.5890 o          1 281      -0.814800
     25 O13          2.7530     6.0010    -2.1460 o          1 281      -0.814800
     26 C3           3.9930     5.4540     0.9510 ca         1 281       0.042700
     27 C8           3.8180     5.6250     2.3120 ca         1 281      -0.107000
     28 C4           5.2610     5.5220     0.4040 ca         1 281      -0.060000
     29 C5           6.3530     5.7660     1.2180 ca         1 281      -0.133000
     30 C6           6.1760     5.9440     2.5770 ca         1 281      -0.163000
     31 C7           4.9080     5.8690     3.1240 ca         1 281      -0.215300
     32 C9           4.7160     6.0550     4.6080 c3         1 281       0.160100
     33 N10          4.8150     4.7540     5.2810 nz         1 281      -0.811600
     34 H37         -2.3150    -0.0200     2.5730 ha         1 281       0.127000
     35 H38         -3.8110     0.0400     0.7070 ha         1 281       0.124000
     36 H39         -3.1190    -0.0780    -1.4650 ha         1 281       0.151000
     37 HN31        -0.0300     2.1100    -3.6230 hn         1 281       0.470800
     38 H27          1.8840     0.9650    -1.6240 h1         1 281       0.085700
     39 H28          3.6410     2.3300    -2.7950 hc         1 281       0.037700
     40 H301         2.2160     0.3550    -4.6130 hc         1 281       0.035700
     41 H302         3.2500    -0.1140    -3.2560 hc         1 281       0.035700
     42 H303         3.9370     0.7630    -4.6310 hc         1 281       0.035700
     43 H291         2.1480     2.5140    -5.3000 hc         1 281       0.035700
     44 H292         3.1050     3.7500    -4.4710 hc         1 281       0.035700
     45 H293         1.4120     3.4950    -4.0250 hc         1 281       0.035700
     46 H151         3.7120     3.9320    -1.4240 hc         1 281       0.030200
     47 H152         3.3180     3.1020     0.0870 hc         1 281       0.030200
     48 H1           1.9030     5.1700     0.6650 hc         1 281       0.079700
     49 H8           2.8250     5.5660     2.7410 ha         1 281       0.137000
     50 H4           5.3990     5.3840    -0.6610 ha         1 281       0.174000
     51 H5           7.3460     5.8220     0.7890 ha         1 281       0.126000
     52 H6           7.0300     6.1350     3.2150 ha         1 281       0.095000
     53 H91          3.7390     6.4850     4.7940 hx         1 281       0.097200
     54 H92          5.4810     6.7190     4.9910 hx         1 281       0.097200
     55 H101         4.9170     4.8950     6.2670 hn         1 281       0.442133
     56 H102         5.6100     4.2570     4.9310 hn         1 281       0.442133
     57 H103         3.9850     4.2230     5.1050 hn         1 281       0.442133
@<TRIPOS>BOND
     1     1     2 2
     2     1     5 ar
     3     1     9 ar
     4     2     3 1
     5     3     4 1
     6     4     5 2
     7     5     6 ar
     8     6     7 ar
     9     6    34 1
    10     7     8 ar
    11     7    35 1
    12     8     9 ar
    13     8    36 1
    14     9    10 1
    15    10    12 2
    16    10    13 1
    17    10    11 2
    18    13    14 1
    19    13    37 1
    20    14    18 1
    21    14    15 1
    22    14    38 1
    23    15    16 1
    24    15    17 1
    25    15    39 1
    26    16    40 1
    27    16    41 1
    28    16    42 1
    29    17    43 1
    30    17    44 1
    31    17    45 1
    32    18    21 1
    33    18    20 1
    34    18    19 1
    35    21    22 1
    36    21    46 1
    37    21    47 1
    38    22    26 1
    39    22    23 1
    40    22    48 1
    41    23    24 1
    42    23    25 1
    43    26    28 ar
    44    26    27 ar
    45    27    31 ar
    46    27    49 1
    47    28    29 ar
    48    28    50 1
    49    29    30 ar
    50    29    51 1
    51    30    31 ar
    52    30    52 1
    53    31    32 1
    54    32    33 1
    55    32    53 1
    56    32    54 1
    57    33    55 1
    58    33    56 1
    59    57    33 1
@<TRIPOS>SUBSTRUCTURE
     1 281         1 TEMP              0 ****  ****    0 ROOT
