@<TRIPOS>MOLECULE
molecule
   15    15     1     0     0
SMALL
bcc


@<TRIPOS>ATOM
      1 C1           0.0000     0.0000     0.0000 c3         1 282       0.126700
      2 O2           1.4290     0.0000     0.0000 os         1 282      -0.324900
      3 C3           2.0460     0.0000     1.2100 ca         1 282       0.016800
      4 C4           3.4350     0.0000     1.2940 ca         1 282      -0.126000
      5 C5           4.0190    -0.0010     2.5520 ca         1 282      -0.217300
      6 C6           3.2090    -0.0010     3.6720 ca         1 282       0.378200
      7 N7           1.8950    -0.0010     3.5570 nb         1 282      -0.658000
      8 C8           1.3010     0.0050     2.3800 ca         1 282       0.332200
      9 H11         -0.3610    -0.0020    -1.0210 h1         1 282       0.043700
     10 H12         -0.3610     0.8850     0.5090 h1         1 282       0.043700
     11 H13         -0.3610    -0.8840     0.5120 h1         1 282       0.043700
     12 H4           4.0450     0.0000     0.3990 ha         1 282       0.150000
     13 H5           5.0970    -0.0010     2.6550 ha         1 282       0.141000
     14 H6           3.6590    -0.0040     4.6570 h4         1 282       0.024100
     15 H8           0.2190     0.0050     2.3260 h4         1 282       0.025100
@<TRIPOS>BOND
     1     1     2 1
     2     2     3 1
     3     3     4 ar
     4     3     8 ar
     5     4     5 ar
     6     5     6 ar
     7     6     7 ar
     8     7     8 ar
     9     1     9 1
    10     1    10 1
    11     1    11 1
    12     4    12 1
    13     5    13 1
    14     6    14 1
    15     8    15 1
@<TRIPOS>SUBSTRUCTURE
     1 282         1 TEMP              0 ****  ****    0 ROOT
