@<TRIPOS>MOLECULE
molecule
   37    38     1     0     0
SMALL
bcc


@<TRIPOS>ATOM
      1 C            0.0000     0.0000     0.0000 ca         1 283      -0.213000
      2 C1           1.3810     0.0000     0.0000 ca         1 283       0.018500
      3 C2           1.3860     0.0010     2.3960 ca         1 283       0.018500
      4 C3           0.0060     0.0020     2.4020 ca         1 283      -0.213000
      5 C4          -0.6920     0.0010     1.2020 ca         1 283       0.203100
      6 O           -2.0510     0.0010     1.2050 os         1 283      -0.296900
      7 C5          -2.6970     0.0020     2.4800 c3         1 283      -0.103500
      8 C6          -6.6440     0.3580     1.4660 c3         1 283      -0.025000
      9 C7          -5.3230     0.0070     2.1580 c1         1 283      -0.119100
     10 C8          -4.1570     0.0030     2.2900 c1         1 283      -0.054100
     11 C9           2.0740     0.0000     1.1960 ca         1 283      -0.379500
     12 O1           4.2390    -0.5450     2.4410 o          1 283      -0.633300
     13 O2           4.2340    -0.5460    -0.0580 o          1 283      -0.633300
     14 S            3.8370    -0.0010     1.1930 sy         1 283       1.446200
     15 C10          4.5850     2.3990     2.3840 c3         1 283       0.213800
     16 N            4.3270     1.5800     1.1910 n3         1 283      -0.830500
     17 C11          4.5800     2.4000    -0.0090 c3         1 283       0.250800
     18 C12          5.5650     3.5000     0.4620 c3         1 283       0.092400
     19 S1           5.4410     4.9750    -0.5850 sh         1 283      -0.493900
     20 C13          5.0450     3.7890     1.8950 c3         1 283      -0.101400
     21 H           -0.4710    -0.0050    -0.9750 ha         1 283       0.149000
     22 H1           2.0590     0.0700    -0.8430 ha         1 283       0.148500
     23 H2           2.0060     0.1610     3.2700 ha         1 283       0.148500
     24 H3          -0.7040    -0.0120     3.2200 ha         1 283       0.149000
     25 H51         -3.6670     0.4780     2.5660 h1         1 283       0.168700
     26 H52         -1.9870     0.4620     3.1570 h1         1 283       0.168700
     27 H61         -7.2000    -0.4190     1.9760 hc         1 283       0.065033
     28 H62         -7.2200     1.2580     1.6400 hc         1 283       0.065033
     29 H63         -6.7530    -0.1660     0.5230 hc         1 283       0.065033
     30 H101         5.4750     1.8590     2.6830 h1         1 283       0.047200
     31 H102         3.8430     2.2830     3.1640 h1         1 283       0.047200
     32 H111         5.3330     2.0350    -0.6960 h1         1 283       0.086200
     33 H112         3.6930     2.9180    -0.3540 h1         1 283       0.086200
     34 H12          6.5790     3.1200     0.4910 h1         1 283       0.077700
     35 HS1          6.2090     6.0580    -0.6150 hs         1 283       0.258800
     36 H131         5.9340     4.0840     2.4400 hc         1 283       0.060200
     37 H132         4.3210     4.3420     2.4810 hc         1 283       0.060200
@<TRIPOS>BOND
     1     1     2 ar  
     2     1     5 ar  
     3     1    21 1   
     4     2    11 ar  
     5     2    22 1   
     6     3    11 ar  
     7     3     4 ar  
     8     3    23 1   
     9     4     5 ar  
    10     4    24 1   
    11     5     6 1   
    12     6     7 1   
    13     7    10 1   
    14     7    25 1   
    15     7    26 1   
    16     8     9 1   
    17     8    27 1   
    18     8    28 1   
    19     8    29 1   
    20     9    10 3   
    21    11    14 1   
    22    12    14 2   
    23    13    14 2   
    24    14    16 1   
    25    15    16 1   
    26    15    20 1   
    27    15    30 1   
    28    15    31 1   
    29    16    17 1   
    30    17    18 1   
    31    17    32 1   
    32    17    33 1   
    33    18    20 1   
    34    18    19 1   
    35    18    34 1   
    36    19    35 1   
    37    20    36 1   
    38    20    37 1   
@<TRIPOS>SUBSTRUCTURE
     1 283         1 TEMP              0 ****  ****    0 ROOT
