@<TRIPOS>MOLECULE
284
   21    21     1     0     0
SMALL
bcc


@<TRIPOS>ATOM
      1 N1           0.0000     0.0000     0.0000 nu         1 284      -0.406000
      2 C2           1.4710     0.0000     0.0000 c3         1 284       0.182800
      3 C3           1.9380     0.0000     1.4630 c3         1 284      -0.045400
      4 C4           1.4230     1.2730     2.1390 c3         1 284      -0.000500
      5 C7           1.6600     1.1750     3.6480 c3         1 284       0.014900
      6 C5          -0.0470     1.4440     1.8780 c2         1 284      -0.099200
      7 C6          -0.6700     0.8440     0.8780 c2         1 284      -0.254000
      8 N7          -2.0310     1.0610     0.7010 nz         1 284       0.287600
      9 H1          -0.5090    -0.5970    -0.6210 hn         1 284       0.299800
     10 H21          1.8370    -0.8880    -0.5010 h1         1 284       0.038700
     11 H22          1.8370     0.8880    -0.5010 h1         1 284       0.038700
     12 H31          3.0200    -0.0170     1.4980 hc         1 284       0.044200
     13 H32          1.5380    -0.8690     1.9710 hc         1 284       0.044200
     14 H4           1.9570     2.1280     1.7430 hc         1 284       0.057700
     15 H71          2.7010     0.9400     3.8350 hc         1 284       0.017033
     16 H72          1.0340     0.3940     4.0620 hc         1 284       0.017033
     17 H73          1.4140     2.1210     4.1140 hc         1 284       0.017033
     18 H5          -0.6200     2.0860     2.5350 ha         1 284       0.117000
     19 H71A        -2.2030     2.0430     0.6070 hn         1 284       0.210133
     20 H72A        -2.5310     0.7100     1.4940 hn         1 284       0.210133
     21 H731        -2.3400     0.5880    -0.1250 hn         1 284       0.210133
@<TRIPOS>BOND
     1     1     2 1   
     2     1     7 1   
     3     1     9 1   
     4     2     3 1   
     5     2    10 1   
     6     2    11 1   
     7     3     4 1   
     8     3    12 1   
     9     3    13 1   
    10     4     5 1   
    11     4     6 1   
    12     4    14 1   
    13     5    15 1   
    14     5    16 1   
    15     5    17 1   
    16     6     7 2   
    17     6    18 1   
    18     7     8 1   
    19     8    19 1   
    20     8    20 1   
    21     8    21 1   
@<TRIPOS>SUBSTRUCTURE
     1 284         1 TEMP              0 ****  ****    0 ROOT
