@<TRIPOS>MOLECULE
molecule
   21    21     1     0     0
SMALL
bcc


@<TRIPOS>ATOM
      1 N1           0.0000     0.0000     0.0000 nu         1 284      -0.830000
      2 C2           1.4710     0.0000     0.0000 c3         1 284       0.246800
      3 C3           1.9380     0.0000     1.4630 c3         1 284      -0.104400
      4 C4           1.4230     1.2730     2.1390 c3         1 284      -0.026500
      5 C7           1.6600     1.1750     3.6480 c3         1 284      -0.086100
      6 C5          -0.0470     1.4440     1.8780 c2         1 284      -0.167200
      7 C6          -0.6700     0.8440     0.8780 c2         1 284       0.128000
      8 N7          -2.0310     1.0610     0.7010 nz         1 284      -0.672400
      9 H1          -0.5090    -0.5970    -0.6210 hn         1 284       0.446800
     10 H21          1.8370    -0.8880    -0.5010 h1         1 284       0.071200
     11 H22          1.8370     0.8880    -0.5010 h1         1 284       0.071200
     12 H31          3.0200    -0.0170     1.4980 hc         1 284       0.076200
     13 H32          1.5380    -0.8690     1.9710 hc         1 284       0.076200
     14 H4           1.9570     2.1280     1.7430 hc         1 284       0.085700
     15 H71          2.7010     0.9400     3.8350 hc         1 284       0.052367
     16 H72          1.0340     0.3940     4.0620 hc         1 284       0.052367
     17 H73          1.4140     2.1210     4.1140 hc         1 284       0.052367
     18 H5          -0.6200     2.0860     2.5350 ha         1 284       0.144000
     19 H71A        -2.2030     2.0430     0.6070 hn         1 284       0.461800
     20 H72A        -2.5310     0.7100     1.4940 hn         1 284       0.461800
     21 H731        -2.3400     0.5880    -0.1250 hn         1 284       0.461800
@<TRIPOS>BOND
     1     1     2 1   
     2     1     7 1   
     3     2     3 1   
     4     3     4 1   
     5     4     5 1   
     6     4     6 1   
     7     6     7 2   
     8     7     8 1   
     9     1     9 1   
    10     2    10 1   
    11     2    11 1   
    12     3    12 1   
    13     3    13 1   
    14     4    14 1   
    15     5    15 1   
    16     5    16 1   
    17     5    17 1   
    18     6    18 1   
    19     8    19 1   
    20     8    20 1   
    21    21     8 1   
@<TRIPOS>SUBSTRUCTURE
     1 284         1 TEMP              0 ****  ****    0 ROOT
