@<TRIPOS>MOLECULE
molecule
   21    21     1     0     0
SMALL
bcc


@<TRIPOS>ATOM
      1 N1           0.0000     0.0000     0.0000 n7         1 285      -0.804200
      2 C2           1.4900     0.0000     0.0000 c3         1 285       0.118500
      3 C2M          2.0330    -1.2590    -0.6780 c3         1 285      -0.093100
      4 C3           1.8280     0.0000     1.5070 c3         1 285       0.103100
      5 C3M          3.0290     0.9090     1.7770 c3         1 285      -0.100100
      6 O4           0.6640     0.5070     2.1760 os         1 285      -0.437600
      7 C5          -0.3170     0.8450     1.1810 c3         1 285       0.341300
      8 C5M         -1.7220     0.5280     1.6950 c3         1 285      -0.100100
      9 H1          -0.3340    -0.9310     0.1560 hn         1 285       0.355800
     10 H2           1.8710     0.8950    -0.4760 h1         1 285       0.081700
     11 H2M1         1.6070    -1.3470    -1.6710 hc         1 285       0.043367
     12 H2M2         1.7650    -2.1300    -0.0920 hc         1 285       0.043367
     13 H2M3         3.1120    -1.1930    -0.7530 hc         1 285       0.043367
     14 H3           2.0360    -1.0100     1.8400 h1         1 285       0.059700
     15 H3M1         3.9170     0.4750     1.3330 hc         1 285       0.042700
     16 H3M2         2.8490     1.8850     1.3430 hc         1 285       0.042700
     17 H3M3         3.1730     1.0100     2.8460 hc         1 285       0.042700
     18 H5          -0.2360     1.8930     0.9200 h2         1 285       0.069700
     19 H5M1        -1.7240    -0.4500     2.1630 hc         1 285       0.048700
     20 H5M2        -2.4200     0.5330     0.8660 hc         1 285       0.048700
     21 H5M3        -2.0180     1.2760     2.4210 hc         1 285       0.048700
@<TRIPOS>BOND
     1     1     2 1
     2     1     7 1
     3     2     3 1
     4     2     4 1
     5     4     5 1
     6     4     6 1
     7     6     7 1
     8     7     8 1
     9     1     9 1
    10     2    10 1
    11     3    11 1
    12     3    12 1
    13     3    13 1
    14     4    14 1
    15     5    15 1
    16     5    16 1
    17     5    17 1
    18     7    18 1
    19     8    19 1
    20     8    20 1
    21     8    21 1
@<TRIPOS>SUBSTRUCTURE
     1 285         1 TEMP              0 ****  ****    0 ROOT
