@<TRIPOS>MOLECULE
molecule
   19    19     1     0     0
SMALL
bcc


@<TRIPOS>ATOM
      1 C1N          0.0000     0.0000     0.0000 c3         1 286      -0.020400
      2 N1           1.4640     0.0000     0.0000 na         1 286       0.064900
      3 C2           2.1130     0.0000     1.1590 ca         1 286       0.054900
      4 C3           3.5080    -0.0010     1.1900 ca         1 286      -0.143000
      5 C21          1.3500    -0.0000     2.4240 ce         1 286      -0.207200
      6 C22          1.9880     0.1050     3.5830 c2         1 286      -0.078000
      7 C4           4.2070    -0.0010    -0.0030 ca         1 286      -0.012000
      8 C5           3.4890    -0.0000    -1.1920 ca         1 286      -0.141000
      9 C6           2.1070    -0.0050    -1.1510 ca         1 286      -0.038300
     10 H1N1        -0.3610    -0.8960     0.4910 h1         1 286       0.095367
     11 H1N2        -0.3610     0.0230    -1.0210 h1         1 286       0.095367
     12 H1N3        -0.3610     0.8730     0.5300 h1         1 286       0.095367
     13 H3           4.0360    -0.0010     2.1360 ha         1 286       0.192000
     14 H21          0.2700    -0.0860     2.4070 ha         1 286       0.162000
     15 H221         1.4290     0.1050     4.5110 ha         1 286       0.146000
     16 H222         3.0680     0.1910     3.6010 ha         1 286       0.146000
     17 H4           5.2900     0.0010    -0.0100 ha         1 286       0.188000
     18 H5           4.0080    -0.0030    -2.1430 ha         1 286       0.195000
     19 H6           1.5450    -0.0050    -2.0770 h4         1 286       0.205000
@<TRIPOS>BOND
     1     1     2 1   
     2     2     3 1   
     3     2     9 2   
     4     3     4 ar  
     5     3     5 1   
     6     4     7 ar  
     7     5     6 2   
     8     7     8 ar  
     9     8     9 ar  
    10     1    10 1   
    11     1    11 1   
    12     1    12 1   
    13     4    13 1   
    14     5    14 1   
    15     6    15 1   
    16     6    16 1   
    17     7    17 1   
    18     8    18 1   
    19     9    19 1   
@<TRIPOS>SUBSTRUCTURE
     1 286         1 TEMP              0 ****  ****    0 ROOT
