@<TRIPOS>MOLECULE
286
   19    19     1     0     0
SMALL
bcc


@<TRIPOS>ATOM
      1 C1N        -0.0030    0.1000    0.0150 c3        1 286     -0.031400
      2 N1          1.4500    0.0130    0.0070 na        1 286      0.026900
      3 C2          2.1440   -0.1180    1.1930 ca        1 286      0.075900
      4 C3          3.5540   -0.2000    1.1680 ca        1 286     -0.150000
      5 C21         1.4210   -0.1940    2.4640 ce        1 286     -0.210200
      6 C22         1.8730    0.3650    3.5910 c2        1 286     -0.086000
      7 C4          4.2460   -0.1520   -0.0390 ca        1 286     -0.007000
      8 C5          3.5220   -0.0250   -1.2320 ca        1 286     -0.143000
      9 C6          2.1310    0.0540   -1.1820 ca        1 286     -0.028300
     10 H1N1       -0.3770    0.4120   -0.9970 h1        1 286      0.099033
     11 H1N2       -0.3270    0.8590    0.7790 h1        1 286      0.099033
     12 H1N3       -0.4330   -0.9050    0.2780 h1        1 286      0.099033
     13 H3          4.0910   -0.3130    2.1260 ha        1 286      0.194000
     14 H21         0.4750   -0.7670    2.4520 ha        1 286      0.165000
     15 H221        2.8020    0.9520    3.6500 ha        1 286      0.149000
     16 H222        1.3170    0.2720    4.5380 ha        1 286      0.149000
     17 H4          5.3490   -0.2170   -0.0580 ha        1 286      0.192000
     18 H5          4.0320    0.0120   -2.2100 ha        1 286      0.200000
     19 H6          1.5240    0.1540   -2.1070 h4        1 286      0.207000
@<TRIPOS>BOND
     1    1    2 1   
     2    1   10 1   
     3    1   11 1   
     4    1   12 1   
     5    2    3 1   
     6    2    9 2   
     7    3    4 ar  
     8    3    5 1   
     9    4    7 ar  
    10    4   13 1   
    11    5    6 2   
    12    5   14 1   
    13    6   15 1   
    14    6   16 1   
    15    7    8 ar  
    16    7   17 1   
    17    8    9 ar  
    18    8   18 1   
    19    9   19 1   
@<TRIPOS>SUBSTRUCTURE
     1 286         1 TEMP              0 ****  ****    0 ROOT
