@<TRIPOS>MOLECULE
287
   60    63     1     0     0
SMALL
bcc


@<TRIPOS>ATOM
      1 C1           0.0000     0.0000     0.0000 ca         1 287      -0.099000
      2 C2           1.3820     0.0000     0.0000 ca         1 287      -0.095000
      3 C3          -0.6910     0.0060     1.1970 ca         1 287      -0.095000
      4 C4           2.0680     6.9860    13.7450 ca         1 287      -0.101000
      5 C5           2.0730     0.0000     1.1970 ca         1 287      -0.095500
      6 C6          -0.0010     0.0070     2.3940 ca         1 287      -0.095500
      7 C7           3.2580     6.8590    13.0560 ca         1 287      -0.089000
      8 C8           0.9610     5.6470    12.0690 ca         1 287      -0.054000
      9 C9           0.1450     2.6930     6.6080 cc         1 287      -0.282100
     10 C10          0.9110     6.3790    13.2550 ca         1 287      -0.136600
     11 C11          1.4840     2.3400     6.6180 cd         1 287      -0.227200
     12 C12          1.3820     0.0000     2.3950 ca         1 287      -0.107300
     13 C13          3.3080     6.1330    11.8810 ca         1 287      -0.101300
     14 C14          2.0800     2.9930     7.7170 cd         1 287      -0.024200
     15 C15          2.1600     5.5260    11.3850 ca         1 287      -0.028400
     16 C16          1.0860     3.7190     8.3340 cc         1 287      -0.502600
     17 C17         -1.2010     4.9340     9.1440 cc         1 287       0.758900
     18 C18          1.0640     4.5660     9.4700 cc         1 287       0.623200
     19 C20          2.1620     1.4470     5.6590 c          1 287       0.642300
     20 C21          4.6110     6.0010    11.1350 c3         1 287       0.056200
     21 C22          3.5260     2.9130     8.1340 c3         1 287       0.048100
     22 C23          2.1730    -1.4220     4.2660 c3         1 287      -0.013100
     23 C24         -1.5330     8.1200    17.0420 c3         1 287       0.240700
     24 C25          2.1350    -0.0000     3.7000 c3         1 287       0.079000
     25 N26         -1.2490     4.1720     8.0870 nd         1 287      -0.760800
     26 N27         -0.0750     5.1360     9.8270 nd         1 287      -0.789000
     27 N28         -0.0900     3.5240     7.6340 na         1 287       0.793200
     28 N29          2.2160     4.7930    10.1960 nu         1 287      -0.258300
     29 N30          1.4640     0.8870     4.6520 ns         1 287      -0.199900
     30 N31         -0.4110     7.2220    15.1360 ns         1 287      -0.079400
     31 O32         -1.3720     5.9850    13.5620 o          1 287      -0.621100
     32 O33          3.3490     1.2150     5.7790 o          1 287      -0.665100
     33 O34         -1.6320     7.3490    15.8420 os         1 287      -0.265900
     34 H1          -0.5420    -0.0000    -0.9380 ha         1 287       0.104000
     35 H2           1.9240    -0.0020    -0.9380 ha         1 287       0.104000
     36 H3          -1.7750     0.0080     1.1970 ha         1 287       0.104000
     37 H4           2.0340     7.5560    14.6660 ha         1 287       0.099000
     38 H5           3.1570    -0.0030     1.1970 ha         1 287       0.107000
     39 H6          -0.5420     0.0090     3.3320 ha         1 287       0.107000
     40 H7           4.1550     7.3300    13.4380 ha         1 287       0.109000
     41 H8           0.0650     5.1740    11.6840 ha         1 287       0.187000
     42 H9          -0.5900     2.3570     5.8870 h4         1 287       0.153000
     43 H17         -2.1080     5.4240     9.4770 h5         1 287       0.012100
     44 H211         5.3120     6.7420    11.4980 hc         1 287       0.011367
     45 H212         4.4380     6.1550    10.0760 hc         1 287       0.011367
     46 H213         5.0190     5.0100    11.2930 hc         1 287       0.011367
     47 H221         3.9830     3.8910     8.0460 hc         1 287       0.023700
     48 H222         3.5870     2.5780     9.1630 hc         1 287       0.023700
     49 H223         4.0480     2.2120     7.4950 hc         1 287       0.023700
     50 H231         1.3380    -1.5640     4.9410 hc         1 287       0.013700
     51 H232         2.1070    -2.1360     3.4540 hc         1 287       0.013700
     52 H233         3.1020    -1.5710     4.8040 hc         1 287       0.013700
     53 H241        -1.2010     9.1220    16.8010 h1         1 287      -0.002967
     54 H242        -2.5040     8.1670    17.5210 h1         1 287      -0.002967
     55 H243        -0.8210     7.6540    17.7120 h1         1 287      -0.002967
     56 H25          3.1470     0.3490     3.5330 h1         1 287       0.058700
     57 H29          3.0880     4.4160     9.8810 hn         1 287       0.310800
     58 H30          0.4960     1.1110     4.5290 hn         1 287       0.183500
     59 H31          0.4190     7.6530    15.4910 hn         1 287       0.168500
     60 C19         -0.3660     6.5130    13.9910 c          1 287       0.599700
@<TRIPOS>BOND
     1     1     2 ar  
     2     1     3 ar  
     3     1    34 1   
     4     2     5 ar  
     5     2    35 1   
     6     3     6 ar  
     7     3    36 1   
     8     4     7 ar  
     9     4    10 ar  
    10     4    37 1   
    11     5    12 ar  
    12     5    38 1   
    13     6    12 ar  
    14     6    39 1   
    15     7    13 ar  
    16     7    40 1   
    17     8    10 ar  
    18     8    15 ar  
    19     8    41 1   
    20     9    11 2   
    21     9    27 1   
    22     9    42 1   
    23    10    60 1   
    24    11    14 1   
    25    11    19 1   
    26    12    24 1   
    27    13    15 ar  
    28    13    20 1   
    29    14    16 2   
    30    14    21 1   
    31    15    28 1   
    32    16    18 1   
    33    16    27 1   
    34    17    25 2   
    35    17    26 1   
    36    17    43 1   
    37    18    26 2   
    38    18    28 1   
    39    19    29 1   
    40    19    32 2   
    41    20    44 1   
    42    20    45 1   
    43    20    46 1   
    44    21    47 1   
    45    21    48 1   
    46    21    49 1   
    47    22    24 1   
    48    22    50 1   
    49    22    51 1   
    50    22    52 1   
    51    23    33 1   
    52    23    53 1   
    53    23    54 1   
    54    23    55 1   
    55    24    29 1   
    56    24    56 1   
    57    25    27 1   
    58    28    57 1   
    59    29    58 1   
    60    30    33 1   
    61    30    59 1   
    62    30    60 1   
    63    31    60 2   
@<TRIPOS>SUBSTRUCTURE
     1 287         1 TEMP              0 ****  ****    0 ROOT
