@<TRIPOS>MOLECULE
288
   49    51     1     0     0
SMALL
bcc


@<TRIPOS>ATOM
      1 C1           0.0000     0.0000     0.0000 ca         1 288      -0.115800
      2 C2           1.4090     0.0000     0.0000 ca         1 288      -0.223200
      3 C3          -0.4130    -0.0050     1.3550 cc         1 288      -0.066200
      4 C4          -0.6930     0.0010    -1.2160 ca         1 288      -0.030000
      5 N5           1.8200     0.0000     1.3130 na         1 288       0.373600
      6 C6           2.0930    -0.0000    -1.2120 ca         1 288      -0.096000
      7 C7           0.7050     0.0000     2.1280 cd         1 288      -0.332300
      8 C8          -0.0010     0.0000    -2.3930 ca         1 288      -0.063600
      9 C9           1.3900    -0.0010    -2.3950 ca         1 288      -0.078000
     10 C10          0.7240     0.0010     3.5980 c          1 288       0.616300
     11 Cl11        -0.8630     0.0010    -3.8990 cl         1 288      -0.037400
     12 N12          1.9000     0.0000     4.2580 ns         1 288      -0.175900
     13 O13         -0.3210     0.0010     4.2200 o          1 288      -0.646100
     14 C14          1.9190     0.0000     5.7220 c3         1 288      -0.009000
     15 C15          3.3630     0.1150     6.2130 c3         1 288       0.316300
     16 N16          3.9900     1.3020     5.6160 n3         1 288      -0.517600
     17 O17          4.0920    -1.0520     5.8290 oh         1 288      -0.588800
     18 C18          3.4780     2.4660     6.3520 c3         1 288       0.101500
     19 C19          5.4260     1.2150     5.9120 c3         1 288       0.110800
     20 C20          4.3860     3.6850     6.1100 c3         1 288      -0.045900
     21 C21          2.0790     2.8490     5.8290 c3         1 288      -0.045900
     22 C22          5.6480     1.3710     7.4180 c3         1 288       0.162400
     23 C23          3.5070     4.7650     5.4470 c3         1 288      -0.020900
     24 C24          2.0650     4.3960     5.8770 c3         1 288      -0.020900
     25 O25          5.1080     0.2360     8.0980 oh         1 288      -0.597800
     26 H3          -1.4360    -0.0060     1.7110 ha         1 288       0.143000
     27 H4          -1.7770     0.0020    -1.2240 ha         1 288       0.114000
     28 HN5          2.7700     0.0030     1.6260 hn         1 288       0.118700
     29 H6           3.1760    -0.0010    -1.2240 ha         1 288       0.102000
     30 H9           1.9250    -0.0010    -3.3370 ha         1 288       0.112000
     31 H12          2.7590    -0.0500     3.7470 hn         1 288       0.182500
     32 H141         1.3440     0.8410     6.0900 h1         1 288       0.042200
     33 H142         1.4850    -0.9220     6.0890 h1         1 288       0.042200
     34 H15          3.3710     0.2070     7.2920 h2         1 288       0.043700
     35 H17          3.8520    -1.7710     6.3900 ho         1 288       0.402000
     36 H18          3.4290     2.2480     7.4120 h1         1 288       0.031700
     37 H191         5.9520     2.0020     5.3860 h1         1 288       0.049200
     38 H192         5.8030     0.2520     5.5890 h1         1 288       0.049200
     39 H201         5.2000     3.4140     5.4480 hc         1 288       0.029950
     40 H202         4.7730     4.0510     7.0530 hc         1 288       0.029950
     41 H211         1.9480     2.5020     4.8110 hc         1 288       0.029950
     42 H212         1.3100     2.4440     6.4760 hc         1 288       0.029950
     43 H221         6.7100     1.4420     7.6210 h1         1 288       0.008200
     44 H222         5.1530     2.2690     7.7650 h1         1 288       0.008200
     45 H231         3.7720     5.7480     5.8180 hc         1 288       0.016700
     46 H232         3.6020     4.7210     4.3690 hc         1 288       0.016700
     47 H241         1.3430     4.7940     5.1740 hc         1 288       0.016700
     48 H242         1.8650     4.7450     6.8830 hc         1 288       0.016700
     49 H25          5.6140     0.0640     8.8750 ho         1 288       0.390000
@<TRIPOS>BOND
     1     1     2 ar  
     2     1     3 1   
     3     1     4 ar  
     4     2     5 1   
     5     2     6 ar  
     6     3     7 2   
     7     3    26 1   
     8     4     8 ar  
     9     4    27 1   
    10     5     7 1   
    11     5    28 1   
    12     6     9 ar  
    13     6    29 1   
    14     7    10 1   
    15     8     9 ar  
    16     8    11 1   
    17     9    30 1   
    18    10    12 1   
    19    10    13 2   
    20    12    14 1   
    21    12    31 1   
    22    14    15 1   
    23    14    32 1   
    24    14    33 1   
    25    15    16 1   
    26    15    17 1   
    27    15    34 1   
    28    16    18 1   
    29    16    19 1   
    30    17    35 1   
    31    18    20 1   
    32    18    21 1   
    33    18    36 1   
    34    19    22 1   
    35    19    37 1   
    36    19    38 1   
    37    20    23 1   
    38    20    39 1   
    39    20    40 1   
    40    21    24 1   
    41    21    41 1   
    42    21    42 1   
    43    22    25 1   
    44    22    43 1   
    45    22    44 1   
    46    23    24 1   
    47    23    45 1   
    48    23    46 1   
    49    24    47 1   
    50    24    48 1   
    51    25    49 1   
@<TRIPOS>SUBSTRUCTURE
     1 288         1 TEMP              0 ****  ****    0 ROOT
