@<TRIPOS>MOLECULE
molecule
   27    28     1     0     0
SMALL
bcc


@<TRIPOS>ATOM
      1 O01          0.0000     0.0000     0.0000 oh         1 28A      -0.498100
      2 C02          1.3590     0.0000     0.0000 ce         1 28A      -0.018100
      3 C03          2.0280     0.0000     1.1600 c2         1 28A      -0.167200
      4 C04          3.5410    -0.0010     1.0980 c3         1 28A      -0.158500
      5 C05          4.1880    -0.0000    -0.2690 ce         1 28A       0.576900
      6 C06          5.6520    -0.0010    -0.3960 ca         1 28A      -0.131900
      7 C07          6.2480    -0.0010    -1.6610 ca         1 28A      -0.092000
      8 C08          7.6280    -0.0030    -1.7700 ca         1 28A       0.131100
      9 O09          8.2110    -0.0030    -2.9980 os         1 28A      -0.321900
     10 C10          9.6400    -0.0040    -3.0360 c3         1 28A       0.127700
     11 C11          8.4160    -0.0040    -0.6270 ca         1 28A      -0.195000
     12 C12          7.8300    -0.0030     0.6260 ca         1 28A      -0.100000
     13 C13          6.4560     0.0040     0.7510 ca         1 28A      -0.142000
     14 N14          3.4340    -0.0000    -1.3370 nf         1 28A      -0.671100
     15 C15          2.0940    -0.0060    -1.2760 c          1 28A       0.686700
     16 O16          1.4620    -0.0050    -2.3150 o          1 28A      -0.487100
     17 H1          -0.3140     0.8880     0.0450 ho         1 28A       0.423000
     18 H2           1.5050    -0.0010     2.1080 ha         1 28A       0.155000
     19 H3           3.8930     0.8760     1.6280 hc         1 28A       0.082700
     20 H4           3.8910    -0.8790     1.6260 hc         1 28A       0.082700
     21 H5           5.6340    -0.0900    -2.5490 ha         1 28A       0.179000
     22 H6           9.9730    -0.0030    -4.0670 h1         1 28A       0.043367
     23 H7          10.0150     0.8800    -2.5350 h1         1 28A       0.043367
     24 H8          10.0140    -0.8890    -2.5360 h1         1 28A       0.043367
     25 H9           9.4960    -0.0070    -0.7180 ha         1 28A       0.139000
     26 H10          8.4520    -0.0020     1.5130 ha         1 28A       0.136000
     27 H11          6.0010     0.0040     1.7340 ha         1 28A       0.132000
@<TRIPOS>BOND
     1    10     9 1   
     2     9     8 1   
     3    11     8 ar  
     4    11    12 ar  
     5     8     7 ar  
     6    12    13 ar  
     7     7     6 ar  
     8    13     6 ar  
     9     6     5 1   
    10     5     4 1   
    11     5    14 2   
    12     4     3 1   
    13    14    15 1   
    14     3     2 2   
    15    15     2 1   
    16    15    16 2   
    17     2     1 1   
    18     1    17 1   
    19     3    18 1   
    20     4    19 1   
    21     4    20 1   
    22     7    21 1   
    23    10    22 1   
    24    10    23 1   
    25    10    24 1   
    26    11    25 1   
    27    12    26 1   
    28    13    27 1   
@<TRIPOS>SUBSTRUCTURE
     1 28A         1 TEMP              0 ****  ****    0 ROOT
