@<TRIPOS>MOLECULE
28B
   24    25     1     0     0
SMALL
bcc


@<TRIPOS>ATOM
      1 O01          0.0000     0.0000     0.0000 o          1 28B      -0.705500
      2 C02          1.2210     0.0000     0.0000 c          1 28B       0.538700
      3 C03          1.9240     0.0000     1.2230 cc         1 28B       0.013900
      4 O04          1.2490    -0.0010     2.4040 oh         1 28B      -0.464100
      5 C05          3.2890    -0.0010     1.2090 cd         1 28B      -0.092000
      6 C06          3.9640    -0.0010    -0.0310 cd         1 28B      -0.106200
      7 C07          5.4480    -0.0030    -0.0710 ca         1 28B      -0.029800
      8 C08          6.1610     1.0910     0.4210 ca         1 28B      -0.039000
      9 C09          7.5410     1.0930     0.3840 ca         1 28B      -0.137000
     10 C10          8.2260     0.0150    -0.1380 ca         1 28B      -0.125000
     11 C11          7.5230    -1.0870    -0.6330 ca         1 28B       0.070000
     12 C12          8.2330    -2.2060    -1.1760 cg         1 28B       0.225800
     13 N13          8.7870    -3.0920    -1.6240 n1         1 28B      -0.374800
     14 C14          6.1300    -1.0950    -0.5940 ca         1 28B      -0.108000
     15 C15          3.2490    -0.0010    -1.1920 cc         1 28B      -0.201400
     16 N16          1.8910    -0.0050    -1.1670 ns         1 28B       0.138900
     17 H1           0.3980    -0.3950     2.3040 ho         1 28B       0.424000
     18 H2           3.7240     0.0380     2.2010 ha         1 28B       0.129000
     19 H3           5.8050     1.8800     1.0730 ha         1 28B       0.114000
     20 H4           8.4810     1.5520     0.6680 ha         1 28B       0.142000
     21 H5           9.2690     0.0110     0.1540 ha         1 28B       0.116000
     22 H6           5.5010    -1.8880    -0.2070 ha         1 28B       0.138000
     23 H7           4.0210    -0.0540    -1.9490 h4         1 28B       0.163000
     24 H8           1.4350    -0.3430    -1.9920 hn         1 28B       0.166500
@<TRIPOS>BOND
     1     1     2 2   
     2     2     3 1   
     3     2    16 1   
     4     3     4 1   
     5     3     5 2   
     6     4    17 1   
     7     5     6 1   
     8     5    18 1   
     9     6     7 1   
    10     6    15 2   
    11     7     8 ar  
    12     7    14 ar  
    13     8     9 ar  
    14     8    19 1   
    15     9    10 ar  
    16     9    20 1   
    17    10    11 ar  
    18    10    21 1   
    19    11    12 1   
    20    11    14 ar  
    21    12    13 3   
    22    14    22 1   
    23    15    16 1   
    24    15    23 1   
    25    16    24 1   
@<TRIPOS>SUBSTRUCTURE
     1 28B         1 TEMP              0 ****  ****    0 ROOT
