@<TRIPOS>MOLECULE
molecule
   24    25     1     0     0
SMALL
bcc


@<TRIPOS>ATOM
      1 O01          0.0000     0.0000     0.0000 o          1 28B      -0.653500
      2 C02          1.2210     0.0000     0.0000 c          1 28B       0.654700
      3 C03          1.9240     0.0000     1.2230 cc         1 28B      -0.007100
      4 O04          1.2490    -0.0010     2.4040 oh         1 28B      -0.484100
      5 C05          3.2890    -0.0010     1.2090 cd         1 28B      -0.095000
      6 C06          3.9640    -0.0010    -0.0310 cd         1 28B      -0.129200
      7 C07          5.4480    -0.0030    -0.0710 ca         1 28B      -0.041800
      8 C08          6.1610     1.0910     0.4210 ca         1 28B      -0.069000
      9 C09          7.5410     1.0930     0.3840 ca         1 28B      -0.163000
     10 C10          8.2260     0.0150    -0.1380 ca         1 28B      -0.129000
     11 C11          7.5230    -1.0870    -0.6330 ca         1 28B       0.011000
     12 C12          8.2330    -2.2060    -1.1760 cg         1 28B       0.235800
     13 N13          8.7870    -3.0920    -1.6240 n1         1 28B      -0.356800
     14 C14          6.1300    -1.0950    -0.5940 ca         1 28B      -0.114000
     15 C15          3.2490    -0.0010    -1.1920 cc         1 28B      -0.034400
     16 N16          1.8910    -0.0050    -1.1670 ns         1 28B      -0.372100
     17 H1           0.3980    -0.3950     2.3040 ho         1 28B       0.442000
     18 H2           3.7240     0.0380     2.2010 ha         1 28B       0.158000
     19 H3           5.8050     1.8800     1.0730 ha         1 28B       0.146000
     20 H4           8.4810     1.5520     0.6680 ha         1 28B       0.166000
     21 H5           9.2690     0.0110     0.1540 ha         1 28B       0.142000
     22 H6           5.5010    -1.8880    -0.2070 ha         1 28B       0.165000
     23 H7           4.0210    -0.0540    -1.9490 h4         1 28B       0.189000
     24 H8           1.4350    -0.3430    -1.9920 hn         1 28B       0.340500
@<TRIPOS>BOND
     1    13    12 3   
     2    12    11 1   
     3    11    10 ar  
     4    11    14 ar  
     5    10     9 ar  
     6    14     7 ar  
     7     9     8 ar  
     8     7     8 ar  
     9     7     6 1   
    10    15     6 2   
    11    15    16 1   
    12     6     5 1   
    13    16     2 1   
    14     5     3 2   
    15     2     3 1   
    16     2     1 2   
    17     3     4 1   
    18     4    17 1   
    19     5    18 1   
    20     8    19 1   
    21     9    20 1   
    22    10    21 1   
    23    14    22 1   
    24    15    23 1   
    25    16    24 1   
@<TRIPOS>SUBSTRUCTURE
     1 28B         1 TEMP              0 ****  ****    0 ROOT
