@<TRIPOS>MOLECULE
28C
   35    37     1     0     0
SMALL
bcc


@<TRIPOS>ATOM
      1 CAA          0.0000     0.0000     0.0000 c3         1 28C      -0.042400
      2 CAP          1.5080     0.0000     0.0000 cc         1 28C       0.515600
      3 CAH          2.1940     0.0000     1.2170 cc         1 28C      -0.434300
      4 NAM          2.1500    -0.0070    -1.1390 nd         1 28C      -0.689800
      5 NAT          3.5450    -0.0080    -1.1740 na         1 28C       0.613300
      6 CAG          4.4560    -0.0130    -2.1720 cc         1 28C       0.173700
      7 NAK          5.6460    -0.0100    -1.6230 nd         1 28C      -0.339700
      8 NAL          5.5440    -0.0030    -0.3400 nd         1 28C      -0.062000
      9 CAS          4.2640    -0.0020    -0.0050 cd         1 28C      -0.357300
     10 CAR          3.5740     0.0000     1.2290 cd         1 28C       0.178600
     11 NAN          4.2720     0.0060     2.4300 nu         1 28C      -0.348600
     12 CAI          3.5430     0.0070     3.7010 c3         1 28C       0.147800
     13 CAJ          4.5400     0.0140     4.8610 c3         1 28C       0.026900
     14 CAQ          3.7900     0.0150     6.1680 ca         1 28C      -0.116300
     15 CAE          3.4380     1.2140     6.7610 ca         1 28C      -0.074000
     16 CAC          2.7500     1.2170     7.9580 ca         1 28C      -0.135000
     17 CAO          2.4130     0.0170     8.5670 ca         1 28C       0.128100
     18 OAB          1.7360     0.0190     9.7460 oh         1 28C      -0.500100
     19 CAD          2.7670    -1.1840     7.9710 ca         1 28C      -0.135000
     20 CAF          3.4500    -1.1820     6.7700 ca         1 28C      -0.074000
     21 H1          -0.3610    -0.9010     0.4800 hc         1 28C       0.021033
     22 H2          -0.3610     0.8670     0.5410 hc         1 28C       0.021033
     23 H3          -0.3610     0.0350    -1.0210 hc         1 28C       0.021033
     24 H4           1.6440    -0.0530     2.1490 ha         1 28C       0.144000
     25 H5           4.2420    -0.0190    -3.2340 h5         1 28C       0.047800
     26 H6           5.2730     0.0110     2.4270 hn         1 28C       0.314800
     27 H7           2.9180     0.8900     3.7580 h1         1 28C       0.027200
     28 H8           2.9230    -0.8790     3.7630 h1         1 28C       0.027200
     29 H9           5.1660    -0.8690     4.8050 hc         1 28C       0.025700
     30 H10          5.1600     0.9000     4.8000 hc         1 28C       0.025700
     31 H11          3.7010     2.1500     6.2850 ha         1 28C       0.107000
     32 H12          2.4740     2.1570     8.4220 ha         1 28C       0.116000
     33 H13          2.3500     0.0260    10.4610 ho         1 28C       0.404000
     34 H14          2.5030    -2.1220     8.4430 ha         1 28C       0.116000
     35 H15          3.7270    -2.1200     6.3040 ha         1 28C       0.107000
@<TRIPOS>BOND
     1     1     2 1   
     2     1    21 1   
     3     1    22 1   
     4     1    23 1   
     5     2     3 1   
     6     2     4 2   
     7     3    10 2   
     8     3    24 1   
     9     4     5 1   
    10     5     6 1   
    11     5     9 1   
    12     6     7 2   
    13     6    25 1   
    14     7     8 1   
    15     8     9 2   
    16     9    10 1   
    17    10    11 1   
    18    11    12 1   
    19    11    26 1   
    20    12    13 1   
    21    12    27 1   
    22    12    28 1   
    23    13    14 1   
    24    13    29 1   
    25    13    30 1   
    26    14    15 ar  
    27    14    20 ar  
    28    15    16 ar  
    29    15    31 1   
    30    16    17 ar  
    31    16    32 1   
    32    17    18 1   
    33    17    19 ar  
    34    18    33 1   
    35    19    20 ar  
    36    19    34 1   
    37    20    35 1   
@<TRIPOS>SUBSTRUCTURE
     1 28C         1 TEMP              0 ****  ****    0 ROOT
