@<TRIPOS>MOLECULE
molecule
   48    51     1     0     0
SMALL
bcc


@<TRIPOS>ATOM
      1 C01          0.0000     0.0000     0.0000 ce         1 28D       0.033200
      2 C02         -0.7150    -1.0320     0.6900 cg         1 28D       0.185500
      3 N03         -1.2690    -1.8490     1.2520 n1         1 28D      -0.326800
      4 N04          1.4010     0.0000     0.0000 na         1 28D      -0.008600
      5 C05          2.2100     0.0000     1.0770 cd         1 28D       0.469400
      6 N06          3.4480    -0.0010     0.6550 nc         1 28D      -0.782000
      7 C07          3.4710     0.0010    -0.6770 cc         1 28D       0.563900
      8 N08          2.2420    -0.0060    -1.1250 nd         1 28D      -0.528800
      9 C09         -0.6780     0.9710    -0.6560 cf         1 28D       0.001800
     10 C10          0.0480     2.1160    -1.2280 ca         1 28D      -0.070800
     11 C11          1.2930     2.4930    -0.6990 ca         1 28D      -0.134000
     12 C12          1.9760     3.5500    -1.2180 ca         1 28D      -0.131000
     13 C13          1.4440     4.2740    -2.2850 ca         1 28D      -0.050200
     14 N14          1.8850     5.3570    -3.0000 na         1 28D      -0.045100
     15 N15          0.9410     5.6810    -3.9800 nd         1 28D      -0.502100
     16 C16         -0.0730     4.8530    -3.9150 cc         1 28D       0.424500
     17 C17         -1.2740     4.8700    -4.7850 ca         1 28D      -0.035900
     18 C18         -1.7950     6.0840    -5.2320 ca         1 28D      -0.266500
     19 C19         -2.9160     6.0970    -6.0440 ca         1 28D       0.178100
     20 O20         -3.4240     7.2800    -6.4810 os         1 28D      -0.315400
     21 C21         -2.7520     8.4690    -6.0630 c3         1 28D       0.109200
     22 C22         -3.5220     4.9010    -6.4140 ca         1 28D       0.041100
     23 O23         -4.6270     4.9160    -7.2080 os         1 28D      -0.294900
     24 C24         -5.8950     4.9860    -6.5540 c3         1 28D       0.119700
     25 C25         -3.0040     3.6890    -5.9690 ca         1 28D       0.178100
     26 O26         -3.5980     2.5220    -6.3320 os         1 28D      -0.315400
     27 C27         -3.0120     1.3150    -5.8380 c3         1 28D       0.109200
     28 C28         -1.8800     3.6720    -5.1600 ca         1 28D      -0.266500
     29 C29          0.1960     3.9080    -2.8260 ca         1 28D      -0.253900
     30 C30         -0.4990     2.8230    -2.2960 ca         1 28D      -0.036000
     31 H051         1.9650     0.4220     2.0440 h5         1 28D       0.085100
     32 H071         4.5090    -0.1700    -0.9390 h5         1 28D       0.104100
     33 H091        -1.6510     0.5040    -0.5660 ha         1 28D       0.169000
     34 H111         1.8440     1.5810    -0.9010 ha         1 28D       0.213000
     35 H121         2.9320     4.0420    -1.3500 ha         1 28D       0.147000
     36 H141         2.7010     5.9130    -2.8360 hn         1 28D       0.335700
     37 H181        -0.8920     6.6610    -5.0730 ha         1 28D       0.163000
     38 H213        -3.2330     9.3130    -6.5420 h1         1 28D       0.055200
     39 H211        -1.6980     8.2520    -6.1950 h1         1 28D       0.055200
     40 H212        -2.7740     8.5870    -4.9860 h1         1 28D       0.055200
     41 H243        -5.9500     4.8060    -5.4870 h1         1 28D       0.029033
     42 H241        -6.6000     5.7650    -6.8150 h1         1 28D       0.029033
     43 H242        -6.4960     4.1300    -6.8380 h1         1 28D       0.029033
     44 H273        -2.6820     0.6290    -6.6090 h1         1 28D       0.055200
     45 H272        -3.9830     0.8500    -5.7110 h1         1 28D       0.055200
     46 H271        -2.7100     1.6300    -4.8460 h1         1 28D       0.055200
     47 H281        -1.1750     2.8680    -5.3370 ha         1 28D       0.163000
     48 H301        -1.0510     2.4190    -3.1360 ha         1 28D       0.153000
@<TRIPOS>BOND
     1    24    23 1   
     2    23    22 1   
     3    26    27 1   
     4    26    25 1   
     5    22    25 ar  
     6    22    19 ar  
     7    21    20 1   
     8    25    28 ar  
     9    20    19 1   
    10    19    18 ar  
    11    28    17 ar  
    12    18    17 ar  
    13    17    16 1   
    14    16    15 2   
    15    16    29 1   
    16     7     8 2   
    17     7     6 1   
    18    15    14 1   
    19     8     4 1   
    20    30    29 ar  
    21    30    10 ar  
    22    29    13 ar  
    23     6     5 2   
    24     4     5 1   
    25     4     1 1   
    26    14    13 1   
    27     9    10 1   
    28     9     1 2   
    29    10    11 ar  
    30    13    12 ar  
    31     1     2 1   
    32     2     3 3   
    33    11    12 ar  
    34     5    31 1   
    35     7    32 1   
    36     9    33 1   
    37    11    34 1   
    38    12    35 1   
    39    14    36 1   
    40    18    37 1   
    41    21    38 1   
    42    21    39 1   
    43    21    40 1   
    44    24    41 1   
    45    24    42 1   
    46    24    43 1   
    47    27    44 1   
    48    27    45 1   
    49    27    46 1   
    50    28    47 1   
    51    30    48 1   
@<TRIPOS>SUBSTRUCTURE
     1 28D         1 TEMP              0 ****  ****    0 ROOT
