@<TRIPOS>MOLECULE
28D
   48    51     1     0     0
SMALL
bcc


@<TRIPOS>ATOM
      1 C01          0.0000     0.0000     0.0000 ce         1 28D      -0.141800
      2 C02         -0.7150    -1.0320     0.6900 cg         1 28D       0.219500
      3 N03         -1.2980    -1.8390     1.2370 n1         1 28D      -0.355800
      4 N04          1.4010     0.0000     0.0000 na         1 28D       0.423400
      5 C05          2.2100     0.0000     1.0770 cc         1 28D       0.304400
      6 N06          3.4480    -0.0010     0.6550 nd         1 28D      -0.698000
      7 C07          3.4710     0.0010    -0.6770 cd         1 28D       0.611900
      8 N08          2.2420    -0.0060    -1.1250 nc         1 28D      -0.695800
      9 C09         -0.6780     0.9710    -0.6560 cf         1 28D      -0.077200
     10 C10          0.0480     2.1160    -1.2280 ca         1 28D       0.078200
     11 C11          1.2930     2.4930    -0.6990 ca         1 28D      -0.188000
     12 C12          1.9760     3.5500    -1.2180 ca         1 28D      -0.072000
     13 C13          1.4440     4.2740    -2.2850 ca         1 28D      -0.209200
     14 N14          1.8850     5.3570    -3.0000 na         1 28D       0.445900
     15 N15          0.9410     5.6810    -3.9800 nc         1 28D      -0.615100
     16 C16         -0.0730     4.8530    -3.9150 cd         1 28D       0.477500
     17 C17         -1.2740     4.8700    -4.7850 ca         1 28D      -0.049900
     18 C18         -1.7950     6.0840    -5.2320 ca         1 28D      -0.218000
     19 C19         -2.9160     6.0970    -6.0440 ca         1 28D       0.161600
     20 O20         -3.4240     7.2800    -6.4810 os         1 28D      -0.289400
     21 C21         -2.7520     8.4690    -6.0630 c3         1 28D       0.233700
     22 C22         -3.5220     4.9010    -6.4140 ca         1 28D       0.059100
     23 O23         -4.6270     4.9160    -7.2080 os         1 28D      -0.310900
     24 C24         -5.8950     4.9860    -6.5540 c3         1 28D       0.252700
     25 C25         -3.0040     3.6890    -5.9690 ca         1 28D       0.161600
     26 O26         -3.5980     2.5220    -6.3320 os         1 28D      -0.289400
     27 C27         -3.0120     1.3150    -5.8380 c3         1 28D       0.233700
     28 C28         -1.8800     3.6720    -5.1600 ca         1 28D      -0.218000
     29 C29          0.1960     3.9080    -2.8260 ca         1 28D      -0.269900
     30 C30         -0.4990     2.8230    -2.2960 ca         1 28D      -0.101000
     31 H051         1.8910     0.0000     2.1120 h5         1 28D       0.031100
     32 H071         4.3590     0.0000    -1.2990 h5         1 28D       0.024100
     33 H091        -0.1350     1.7510    -1.1770 ha         1 28D       0.157000
     34 H111         1.3610     2.8540     0.3200 ha         1 28D       0.157000
     35 H121         2.9360     3.8310    -0.8020 ha         1 28D       0.120000
     36 H141         2.7450     5.8470    -2.8530 hn         1 28D       0.160700
     37 H181        -1.3460     7.0160    -4.9120 ha         1 28D       0.141000
     38 H213        -1.6810     8.3050    -6.0870 h1         1 28D       0.001867
     39 H211        -3.0080     9.2830    -6.7300 h1         1 28D       0.001867
     40 H212        -3.0560     8.7200    -5.0540 h1         1 28D       0.001867
     41 H243        -6.4800     5.7890    -6.9850 h1         1 28D      -0.008967
     42 H241        -5.7460     5.1740    -5.4980 h1         1 28D      -0.008967
     43 H242        -6.4190     4.0470    -6.6830 h1         1 28D      -0.008967
     44 H273        -2.0660     1.1420    -6.3360 h1         1 28D       0.001867
     45 H272        -2.8470     1.4040    -4.7710 h1         1 28D       0.001867
     46 H271        -3.6800     0.4840    -6.0320 h1         1 28D       0.001867
     47 H281        -1.4730     2.7280    -4.8170 ha         1 28D       0.141000
     48 H301        -1.0830     3.7170    -2.1120 ha         1 28D       0.216000
@<TRIPOS>BOND
     1     1     2 1   
     2     1     4 1   
     3     1     9 2   
     4     2     3 3   
     5     4     5 1   
     6     4     8 1   
     7     5     6 2   
     8     5    31 1   
     9     6     7 1   
    10     7     8 2   
    11     7    32 1   
    12     9    10 1   
    13     9    33 1   
    14    10    11 ar  
    15    10    30 ar  
    16    11    12 ar  
    17    11    34 1   
    18    12    13 ar  
    19    12    35 1   
    20    13    14 1   
    21    13    29 ar  
    22    14    15 1   
    23    14    36 1   
    24    15    16 2   
    25    16    17 1   
    26    16    29 1   
    27    17    18 ar  
    28    17    28 ar  
    29    18    19 ar  
    30    18    37 1   
    31    19    20 1   
    32    19    22 ar  
    33    20    21 1   
    34    21    38 1   
    35    21    39 1   
    36    21    40 1   
    37    22    23 1   
    38    22    25 ar  
    39    23    24 1   
    40    24    41 1   
    41    24    42 1   
    42    24    43 1   
    43    25    26 1   
    44    25    28 ar  
    45    26    27 1   
    46    27    44 1   
    47    27    45 1   
    48    27    46 1   
    49    28    47 1   
    50    29    30 ar  
    51    30    48 1   
@<TRIPOS>SUBSTRUCTURE
     1 28D         1 TEMP              0 ****  ****    0 ROOT
