@<TRIPOS>MOLECULE
28E
   35    37     1     0     0
SMALL
bcc


@<TRIPOS>ATOM
      1 OAB         0.0290    0.1130   -0.2090 oh        1 28E     -0.490100
      2 CAT         1.3960    0.0570   -0.0850 ca        1 28E      0.187100
      3 CAK         2.0330    0.0680    1.1640 ca        1 28E     -0.326000
      4 CAY         3.4310    0.0040    1.2040 ca        1 28E      0.193100
      5 OAG         4.1230    0.0080    2.3930 oh        1 28E     -0.492100
      6 CBD         4.2040   -0.0730    0.0310 ca        1 28E     -0.210300
      7 CAP         5.6830   -0.1610    0.1020 c3        1 28E     -0.053100
      8 CAN         2.1240   -0.0060   -1.2800 ca        1 28E     -0.210000
      9 CBC         3.5210   -0.0690   -1.1990 ca        1 28E      0.174100
     10 OAR         4.1820   -0.1740   -2.4090 os        1 28E     -0.320900
     11 CBF         5.5710    0.2260   -2.3550 c3        1 28E      0.157400
     12 CBE         6.2920   -0.5580   -1.2420 c3        1 28E      0.120100
     13 OAQ         6.2220   -1.9560   -1.4430 oh        1 28E     -0.583800
     14 CBA         6.1410   -0.0110   -3.7180 ca        1 28E     -0.086300
     15 CAO         6.8770    1.0100   -4.3270 ca        1 28E     -0.121000
     16 CAV         7.4300    0.8000   -5.5950 ca        1 28E      0.105100
     17 OAD         8.1530    1.8320   -6.1470 oh        1 28E     -0.496100
     18 CAU         7.2310   -0.4340   -6.2520 ca        1 28E      0.051100
     19 OAC         7.8060   -0.5580   -7.5000 oh        1 28E     -0.516100
     20 CAI         6.4880   -1.4460   -5.6400 ca        1 28E     -0.175000
     21 CAJ         5.9470   -1.2300   -4.3740 ca        1 28E     -0.082000
     22 H1         -0.3520    0.1630    0.6800 ho        1 28E      0.422000
     23 H2          1.4480    0.1250    2.0910 ha        1 28E      0.138000
     24 H3          3.4780    0.0400    3.1150 ho        1 28E      0.423000
     25 H4          6.1010    0.8290    0.4250 hc        1 28E      0.072200
     26 H5          5.9780   -0.9180    0.8780 hc        1 28E      0.072200
     27 H6          1.6150   -0.0090   -2.2530 ha        1 28E      0.171000
     28 H7          5.6050    1.3230   -2.1010 h1        1 28E      0.066700
     29 H8          7.3940   -0.3280   -1.2650 h1        1 28E      0.093700
     30 H9          5.2840   -2.1920   -1.4600 ho        1 28E      0.407000
     31 H10         7.0320    1.9800   -3.8320 ha        1 28E      0.153000
     32 H11         8.4610    1.5460   -7.0210 ho        1 28E      0.437000
     33 H12         7.5950   -1.4410   -7.8360 ho        1 28E      0.431000
     34 H13         6.3340   -2.4050   -6.1540 ha        1 28E      0.138000
     35 H14         5.3680   -2.0230   -3.8770 ha        1 28E      0.149000
@<TRIPOS>BOND
     1    1    2 1   
     2    1   22 1   
     3    2    3 ar  
     4    2    8 ar  
     5    3    4 ar  
     6    3   23 1   
     7    4    5 1   
     8    4    6 ar  
     9    5   24 1   
    10    6    7 1   
    11    6    9 ar  
    12    7   12 1   
    13    7   25 1   
    14    7   26 1   
    15    8    9 ar  
    16    8   27 1   
    17    9   10 1   
    18   10   11 1   
    19   11   12 1   
    20   11   14 1   
    21   11   28 1   
    22   12   13 1   
    23   12   29 1   
    24   13   30 1   
    25   14   15 ar  
    26   14   21 ar  
    27   15   16 ar  
    28   15   31 1   
    29   16   17 1   
    30   16   18 ar  
    31   17   32 1   
    32   18   19 1   
    33   18   20 ar  
    34   19   33 1   
    35   20   21 ar  
    36   20   34 1   
    37   21   35 1   
@<TRIPOS>SUBSTRUCTURE
     1 28E         1 TEMP              0 ****  ****    0 ROOT
