@<TRIPOS>MOLECULE
molecule
   35    37     1     0     0
SMALL
bcc


@<TRIPOS>ATOM
      1 OAB          0.0000     0.0000     0.0000 oh         1 28E      -0.521100
      2 CAT          1.3590     0.0000     0.0000 ca         1 28E       0.161100
      3 CAK          2.0530     0.0000     1.2000 ca         1 28E      -0.253000
      4 CAY          3.4390     0.0010     1.1960 ca         1 28E       0.164100
      5 OAG          4.1190     0.0020     2.3720 oh         1 28E      -0.510100
      6 CBD          4.1360     0.0030    -0.0080 ca         1 28E      -0.183300
      7 CAP          5.6430     0.0160     0.0290 c3         1 28E      -0.041100
      8 CAN          2.0530    -0.0060    -1.1990 ca         1 28E      -0.204000
      9 CBC          3.4430    -0.0010    -1.2050 ca         1 28E       0.192100
     10 OAR          4.0850    -0.0120    -2.4020 os         1 28E      -0.309900
     11 CBF          5.4630     0.3630    -2.4250 c3         1 28E       0.205400
     12 CBE          6.1950    -0.4240    -1.3300 c3         1 28E       0.112100
     13 OAQ          5.9710    -1.8240    -1.5110 oh         1 28E      -0.586800
     14 CBA          6.0570     0.0330    -3.7690 ca         1 28E      -0.088300
     15 CAO          7.0270     0.8530    -4.3160 ca         1 28E      -0.151000
     16 CAV          7.5750     0.5510    -5.5510 ca         1 28E       0.088100
     17 OAD          8.5300     1.3570    -6.0890 oh         1 28E      -0.507100
     18 CAU          7.1460    -0.5780    -6.2420 ca         1 28E       0.100100
     19 OAC          7.6800    -0.8790    -7.4560 oh         1 28E      -0.510100
     20 CAI          6.1730    -1.3960    -5.6900 ca         1 28E      -0.162000
     21 CAJ          5.6340    -1.0920    -4.4530 ca         1 28E      -0.078000
     22 H1          -0.3140    -0.8890     0.0060 ho         1 28E       0.425000
     23 H2           1.5150     0.0610     2.1380 ha         1 28E       0.144000
     24 H3           3.7480     0.6490     2.9490 ho         1 28E       0.425000
     25 H4           5.9780     1.0260     0.2310 hc         1 28E       0.066200
     26 H5           5.9790    -0.6850     0.7840 hc         1 28E       0.066200
     27 H6           1.5100    -0.0130    -2.1360 ha         1 28E       0.156000
     28 H7           5.5540     1.4240    -2.2310 h1         1 28E       0.062700
     29 H8           7.2560    -0.2100    -1.3770 h1         1 28E       0.044700
     30 H9           6.7450    -2.3010    -1.2620 ho         1 28E       0.405000
     31 H10          7.3310     1.7530    -3.7950 ha         1 28E       0.139000
     32 H11          9.3280     1.2720    -5.5940 ho         1 28E       0.420000
     33 H12          7.0430    -0.7120    -8.1310 ho         1 28E       0.424000
     34 H13          5.8390    -2.2770    -6.2250 ha         1 28E       0.145000
     35 H14          4.8740    -1.7330    -4.0220 ha         1 28E       0.161000
@<TRIPOS>BOND
     1     5     4 1   
     2     4     3 ar  
     3     4     6 ar  
     4     3     2 ar  
     5     7     6 1   
     6     7    12 1   
     7     6     9 ar  
     8     2     1 1   
     9     2     8 ar  
    10    13    12 1   
    11    12    11 1   
    12     9     8 ar  
    13     9    10 1   
    14    11    10 1   
    15    11    14 1   
    16    14    21 ar  
    17    14    15 ar  
    18    21    20 ar  
    19    15    16 ar  
    20    20    18 ar  
    21    16    18 ar  
    22    16    17 1   
    23    18    19 1   
    24     1    22 1   
    25     3    23 1   
    26     5    24 1   
    27     7    25 1   
    28     7    26 1   
    29     8    27 1   
    30    11    28 1   
    31    12    29 1   
    32    13    30 1   
    33    15    31 1   
    34    17    32 1   
    35    19    33 1   
    36    20    34 1   
    37    21    35 1   
@<TRIPOS>SUBSTRUCTURE
     1 28E         1 TEMP              0 ****  ****    0 ROOT
