@<TRIPOS>MOLECULE
molecule
   48    51     1     0     0
SMALL
bcc


@<TRIPOS>ATOM
      1 C1           0.0000     0.0000     0.0000 c3         1 28F      -0.114100
      2 C2           1.5300     0.0000     0.0000 c3         1 28F       0.126000
      3 O5           4.1340     0.0010     0.7020 o          1 28F      -0.634100
      4 N6           3.7950    -0.0010     2.8970 ns         1 28F      -0.461400
      5 C7           5.1570    -0.0010     3.1500 cc         1 28F       0.471800
      6 C9           7.0310    -0.0050     4.4070 ca         1 28F      -0.006900
      7 C10          7.8470    -0.0060     5.5580 ca         1 28F      -0.021000
      8 C11          9.2260    -0.0020     5.4020 cp         1 28F      -0.169300
      9 C12          9.7700     0.0040     4.1090 ca         1 28F       0.686600
     10 C14          7.6570     0.0000     3.1550 ca         1 28F       0.435600
     11 C19         13.7110     0.0030     1.1840 c3         1 28F      -0.110400
     12 C20         14.9020    -0.9720     1.2570 c3         1 28F       0.126400
     13 C22         13.6880    -1.3110     3.2040 c3         1 28F       0.130400
     14 C24          9.7150     1.0980     7.8690 ca         1 28F       0.470200
     15 N25         10.5040     1.0810     8.9310 nb         1 28F      -0.734000
     16 N3           2.0190     0.0000     1.3810 ns         1 28F      -0.589900
     17 C4           3.3440    -0.0000     1.6270 c          1 28F       0.781100
     18 N8           5.6860    -0.0060     4.3230 nd         1 28F      -0.639100
     19 N13          8.9840     0.0050     3.0520 nb         1 28F      -0.731000
     20 S15          6.4060     0.0010     1.9130 ss         1 28F      -0.045500
     21 O16         11.1170     0.0080     3.9470 os         1 28F      -0.441100
     22 C17         11.6090     0.0130     2.6050 c3         1 28F       0.152400
     23 C18         13.1380     0.0170     2.6220 c3         1 28F      -0.110700
     24 O21         15.0110    -1.4120     2.6210 os         1 28F      -0.412600
     25 C23          9.9430     0.1770     6.8430 cp         1 28F      -0.279600
     26 C26         11.4950     0.2160     9.0240 ca         1 28F       0.675900
     27 N27         11.7470    -0.6650     8.0770 nb         1 28F      -0.734000
     28 C28         11.0000    -0.7250     6.9880 ca         1 28F       0.470200
     29 H1          -0.3610    -0.8840     0.5110 hc         1 28F       0.046033
     30 H2          -0.3610     0.8850     0.5100 hc         1 28F       0.046033
     31 H3          -0.3610    -0.0010    -1.0210 hc         1 28F       0.046033
     32 H4           1.8910     0.8840    -0.5110 h1         1 28F       0.057700
     33 H5           1.8910    -0.8840    -0.5110 h1         1 28F       0.057700
     34 H6           3.1450    -0.0020     3.6580 hn         1 28F       0.339500
     35 H7           7.4040    -0.0100     6.5460 ha         1 28F       0.160000
     36 H9          14.0500     0.9930     0.9040 hc         1 28F       0.054700
     37 H10         15.8120    -0.4630     0.9620 h1         1 28F       0.047200
     38 H11         14.7220    -1.8220     0.6100 h1         1 28F       0.047200
     39 H12         13.7530    -1.2540     4.2840 h1         1 28F       0.057700
     40 H13         13.0720    -2.1460     2.8940 h1         1 28F       0.057700
     41 H14          8.9030     1.8110     7.7990 h4         1 28F       0.037600
     42 H15          1.3690     0.0010     2.1420 hn         1 28F       0.314500
     43 H16         11.2550    -0.8710     2.0880 h1         1 28F       0.053700
     44 H17         11.2510     0.8980     2.0930 h1         1 28F       0.053700
     45 H18         13.5210     0.8640     3.1780 hc         1 28F       0.078700
     46 H19         12.1250     0.2330     9.9050 h5         1 28F       0.061100
     47 H20         11.2470    -1.4160     6.1910 h4         1 28F       0.037600
     48 H8          12.9670    -0.3610     0.4860 hc         1 28F       0.054700
@<TRIPOS>BOND
     1     1     2 1   
     2     2    16 1   
     3    16    17 1   
     4    17     3 2   
     5    17     4 1   
     6     4     5 1   
     7     5    20 1   
     8     5    18 2   
     9    20    10 1   
    10    18     6 1   
    11     6    10 ar  
    12     6     7 ar  
    13    10    19 ar  
    14     7     8 ar  
    15    19     9 ar  
    16     9     8 ar  
    17     9    21 1   
    18     8    25 1   
    19    21    22 1   
    20    25    14 ar  
    21    25    28 ar  
    22    22    23 1   
    23    14    15 ar  
    24    13    24 1   
    25    13    23 1   
    26    24    12 1   
    27    28    27 ar  
    28    23    11 1   
    29    15    26 ar  
    30    12    11 1   
    31    27    26 ar  
    32     1    29 1   
    33     1    30 1   
    34     1    31 1   
    35     2    32 1   
    36     2    33 1   
    37     4    34 1   
    38     7    35 1   
    39    11    48 1   
    40    11    36 1   
    41    12    37 1   
    42    12    38 1   
    43    13    39 1   
    44    13    40 1   
    45    14    41 1   
    46    16    42 1   
    47    22    43 1   
    48    22    44 1   
    49    23    45 1   
    50    26    46 1   
    51    28    47 1   
@<TRIPOS>SUBSTRUCTURE
     1 28F         1 TEMP              0 ****  ****    0 ROOT
