@<TRIPOS>MOLECULE
28F
   48    51     1     0     0
SMALL
bcc


@<TRIPOS>ATOM
      1 C1           0.0000     0.0000     0.0000 c3         1 28F      -0.008100
      2 C2           1.5300     0.0000     0.0000 c3         1 28F       0.063000
      3 O5           4.1340     0.0010     0.7020 o          1 28F      -0.662100
      4 N6           3.7950    -0.0010     2.8970 ns         1 28F      -0.003400
      5 C7           5.1570    -0.0010     3.1500 cc         1 28F       0.327800
      6 C9           7.0310    -0.0050     4.4070 ca         1 28F      -0.050900
      7 C10          7.8470    -0.0060     5.5580 ca         1 28F      -0.004000
      8 C11          9.2260    -0.0020     5.4020 cp         1 28F      -0.158300
      9 C12          9.7700     0.0040     4.1090 ca         1 28F       0.642600
     10 C14          7.6570     0.0000     3.1550 ca         1 28F       0.442600
     11 C19         13.7110     0.0030     1.1840 c3         1 28F      -0.054400
     12 C20         14.9020    -0.9720     1.2570 c3         1 28F       0.210400
     13 C22         13.6880    -1.3110     3.2040 c3         1 28F       0.210400
     14 C24          9.7150     1.0980     7.8690 ca         1 28F       0.449200
     15 N25         10.5040     1.0810     8.9310 nb         1 28F      -0.626000
     16 N3           2.0190     0.0000     1.3810 ns         1 28F      -0.202900
     17 C4           3.3440    -0.0000     1.6270 c          1 28F       0.548100
     18 N8           5.6860    -0.0060     4.3230 nd         1 28F      -0.516100
     19 N13          8.9840     0.0050     3.0520 nb         1 28F      -0.596000
     20 S15          6.4060     0.0010     1.9130 ss         1 28F      -0.199500
     21 O16         11.1170     0.0080     3.9470 os         1 28F      -0.429100
     22 C17         11.6090     0.0130     2.6050 c3         1 28F       0.220400
     23 C18         13.1380     0.0170     2.6220 c3         1 28F      -0.096700
     24 O21         15.0110    -1.4120     2.6210 os         1 28F      -0.405600
     25 C23          9.9430     0.1770     6.8430 cp         1 28F      -0.259600
     26 C26         11.4950     0.2160     9.0240 ca         1 28F       0.626900
     27 N27         11.7470    -0.6650     8.0770 nb         1 28F      -0.626000
     28 C28         11.0000    -0.7250     6.9880 ca         1 28F       0.449200
     29 H1          -0.3610    -0.8840     0.5110 hc         1 28F       0.009700
     30 H2          -0.3610     0.8850     0.5100 hc         1 28F       0.009700
     31 H3          -0.3610    -0.0010    -1.0210 hc         1 28F       0.009700
     32 H4           1.8910     0.8840    -0.5110 h1         1 28F       0.027700
     33 H5           1.8910    -0.8840    -0.5110 h1         1 28F       0.027700
     34 H6           3.1450    -0.0020     3.6580 hn         1 28F       0.171500
     35 H7           7.4040    -0.0100     6.5460 ha         1 28F       0.125000
     36 H9          14.0500     0.9930     0.9040 hc         1 28F       0.024200
     37 H10         15.8120    -0.4630     0.9620 h1         1 28F       0.005700
     38 H11         14.7220    -1.8220     0.6100 h1         1 28F       0.005700
     39 H12         13.7530    -1.2540     4.2840 h1         1 28F       0.015700
     40 H13         13.0720    -2.1460     2.8940 h1         1 28F       0.015700
     41 H14          8.9030     1.8110     7.7990 h4         1 28F      -0.007400
     42 H15          1.3690     0.0010     2.1420 hn         1 28F       0.171500
     43 H16         11.2550    -0.8710     2.0880 h1         1 28F       0.015200
     44 H17         11.2510     0.8980     2.0930 h1         1 28F       0.015200
     45 H18         13.5210     0.8640     3.1780 hc         1 28F       0.048700
     46 H19         12.1250     0.2330     9.9050 h5         1 28F       0.000100
     47 H20         11.2470    -1.4160     6.1910 h4         1 28F      -0.007400
     48 H8          12.9670    -0.3610     0.4860 hc         1 28F       0.024200
@<TRIPOS>BOND
     1     1     2 1   
     2     1    29 1   
     3     1    30 1   
     4     1    31 1   
     5     2    16 1   
     6     2    32 1   
     7     2    33 1   
     8     3    17 2   
     9     4     5 1   
    10     4    17 1   
    11     4    34 1   
    12     5    18 2   
    13     5    20 1   
    14     6     7 ar  
    15     6    10 ar  
    16     6    18 1   
    17     7     8 ar  
    18     7    35 1   
    19     8     9 ar  
    20     8    25 1   
    21     9    19 ar  
    22     9    21 1   
    23    10    19 ar  
    24    10    20 1   
    25    11    12 1   
    26    11    23 1   
    27    11    36 1   
    28    11    48 1   
    29    12    24 1   
    30    12    37 1   
    31    12    38 1   
    32    13    23 1   
    33    13    24 1   
    34    13    39 1   
    35    13    40 1   
    36    14    15 ar  
    37    14    25 ar  
    38    14    41 1   
    39    15    26 ar  
    40    16    17 1   
    41    16    42 1   
    42    21    22 1   
    43    22    23 1   
    44    22    43 1   
    45    22    44 1   
    46    23    45 1   
    47    25    28 ar  
    48    26    27 ar  
    49    26    46 1   
    50    27    28 ar  
    51    28    47 1   
@<TRIPOS>SUBSTRUCTURE
     1 28F         1 TEMP              0 ****  ****    0 ROOT
