@<TRIPOS>MOLECULE
molecule
   55    58     1     0     0
SMALL
bcc


@<TRIPOS>ATOM
      1 C1           0.0000     0.0000     0.0000 c2         1 28G      -0.187000
      2 C2           1.3100     0.0000     0.0000 c2         1 28G      -0.211200
      3 C3           2.0630     0.0000     1.3050 c3         1 28G       0.163200
      4 C8           5.4400    -2.5810     3.5400 cc         1 28G       0.467800
      5 C10          6.9950    -3.6180     4.8070 ca         1 28G      -0.010900
      6 C11          7.9710    -4.5650     5.1850 ca         1 28G      -0.025000
      7 C12          8.5800    -4.4400     6.4250 cp         1 28G      -0.167300
      8 C13          8.2110    -3.3800     7.2680 ca         1 28G       0.687600
      9 C15          6.6880    -2.5930     5.7080 ca         1 28G       0.435600
     10 O17          8.8020    -3.2500     8.4820 os         1 28G      -0.419100
     11 C19          9.1530    -2.1670    10.6150 c3         1 28G       0.157800
     12 C21         10.8750    -0.4860     9.7720 c3         1 28G       0.121300
     13 C22         12.3600    -0.3030     9.4460 c3         1 28G       0.139900
     14 C24         12.9480    -1.8790    11.1510 c3         1 28G       0.139900
     15 C27          9.2000    -7.1900     6.5830 ca         1 28G      -0.075000
     16 C31         10.7180    -5.4330     7.2030 ca         1 28G       0.432200
     17 C28         10.1700    -8.0950     6.9750 ca         1 28G      -0.255300
     18 C29         11.3720    -7.6260     7.4700 ca         1 28G       0.417200
     19 C26          9.4790    -5.8250     6.7000 cp         1 28G      -0.153300
     20 C5           3.7780    -1.3330     2.4090 c          1 28G       0.781100
     21 C25         11.4690    -2.0790    11.4930 c3         1 28G       0.121300
     22 C18          8.3830    -2.1500     9.2930 c3         1 28G       0.145400
     23 N30         11.6070    -6.3320     7.5740 nb         1 28G      -0.692000
     24 N9           6.2840    -3.5460     3.6640 nd         1 28G      -0.638100
     25 N14          7.2980    -2.5110     6.8890 nb         1 28G      -0.737000
     26 N20         10.6560    -1.8440    10.2910 n3         1 28G      -0.724600
     27 N7           4.6330    -2.3740     2.4340 ns         1 28G      -0.460400
     28 N4           2.9930    -1.1320     1.3320 ns         1 28G      -0.587900
     29 O6           3.7130    -0.5760     3.3580 o          1 28G      -0.635100
     30 O23         13.1350    -0.5650    10.6180 os         1 28G      -0.427600
     31 S16          5.4510    -1.5710     4.9780 ss         1 28G      -0.052500
     32 H1          -0.5420     0.0000    -0.9380 ha         1 28G       0.119500
     33 H2          -0.5420     0.0000     0.9380 ha         1 28G       0.119500
     34 H3           1.8510     0.0000    -0.9380 ha         1 28G       0.129000
     35 H4           1.3630    -0.0890     2.1270 h1         1 28G       0.062700
     36 H5           2.6180     0.9250     1.4020 h1         1 28G       0.062700
     37 H6           8.2400    -5.3750     4.5180 ha         1 28G       0.159000
     38 H7           8.7740    -1.3870    11.2640 h1         1 28G       0.054700
     39 H8           9.0250    -3.1300    11.0940 h1         1 28G       0.054700
     40 H10         10.2890    -0.3450     8.8720 h1         1 28G       0.041450
     41 H11         12.6450    -0.9940     8.6620 h1         1 28G       0.055200
     42 H12         12.5340     0.7150     9.1190 h1         1 28G       0.055200
     43 H13         13.2500    -2.6130    10.4130 h1         1 28G       0.055200
     44 H14         13.5440    -1.9930    12.0480 h1         1 28G       0.055200
     45 H15          8.2480    -7.5300     6.1910 ha         1 28G       0.139000
     46 H16         10.9300    -4.3810     7.3490 h4         1 28G       0.043100
     47 H17          9.9880    -9.1600     6.8960 ha         1 28G       0.140000
     48 H18         12.1320    -8.3320     7.7820 h4         1 28G       0.021100
     49 H19         11.1800    -1.3770    12.2660 h1         1 28G       0.041450
     50 H20         11.3140    -3.0930    11.8410 h1         1 28G       0.041450
     51 H21          8.5810    -1.2210     8.7720 h1         1 28G       0.050700
     52 H22          7.3210    -2.2320     9.4930 h1         1 28G       0.050700
     53 H24          4.6820    -3.0010     1.6550 hn         1 28G       0.339500
     54 H25          3.0700    -1.7350     0.5370 hn         1 28G       0.316500
     55 H9          10.5790     0.2380    10.5210 h1         1 28G       0.041450
@<TRIPOS>BOND
     1     2     3 1   
     2     2     1 2   
     3     3    28 1   
     4    28    20 1   
     5    20    29 2   
     6    20    27 1   
     7    27     4 1   
     8     4    31 1   
     9     4    24 2   
    10    31     9 1   
    11    24     5 1   
    12     5     9 ar  
    13     5     6 ar  
    14     9    25 ar  
    15     6     7 ar  
    16    25     8 ar  
    17     8     7 ar  
    18     8    10 1   
    19     7    19 1   
    20    11    22 1   
    21    11    26 1   
    22    22    10 1   
    23    19    15 ar  
    24    19    16 ar  
    25    15    17 ar  
    26    16    23 ar  
    27    17    18 ar  
    28    21    26 1   
    29    21    14 1   
    30    26    12 1   
    31    12    13 1   
    32    23    18 ar  
    33    14    30 1   
    34    13    30 1   
    35     1    32 1   
    36     1    33 1   
    37     2    34 1   
    38     3    35 1   
    39     3    36 1   
    40     6    37 1   
    41    11    38 1   
    42    11    39 1   
    43    12    55 1   
    44    12    40 1   
    45    13    41 1   
    46    13    42 1   
    47    14    43 1   
    48    14    44 1   
    49    15    45 1   
    50    16    46 1   
    51    17    47 1   
    52    18    48 1   
    53    21    49 1   
    54    21    50 1   
    55    22    51 1   
    56    22    52 1   
    57    27    53 1   
    58    28    54 1   
@<TRIPOS>SUBSTRUCTURE
     1 28G         1 TEMP              0 ****  ****    0 ROOT
