@<TRIPOS>MOLECULE
28G
   55    58     1     0     0
SMALL
bcc


@<TRIPOS>ATOM
      1 C1           0.0000     0.0000     0.0000 c2         1 28G      -0.125000
      2 C2           1.3100     0.0000     0.0000 c2         1 28G      -0.194200
      3 C3           2.0630     0.0000     1.3050 c3         1 28G       0.108200
      4 C8           5.4400    -2.5810     3.5400 cc         1 28G       0.322800
      5 C10          6.9950    -3.6180     4.8070 ca         1 28G      -0.055900
      6 C11          7.9710    -4.5650     5.1850 ca         1 28G      -0.010000
      7 C12          8.5800    -4.4400     6.4250 cp         1 28G      -0.156300
      8 C13          8.2110    -3.3800     7.2680 ca         1 28G       0.644600
      9 C15          6.6880    -2.5930     5.7080 ca         1 28G       0.443600
     10 O17          8.8020    -3.2500     8.4820 os         1 28G      -0.408100
     11 C19          9.1530    -2.1670    10.6150 c3         1 28G       0.157800
     12 C21         10.8750    -0.4860     9.7720 c3         1 28G       0.114300
     13 C22         12.3600    -0.3030     9.4460 c3         1 28G       0.214400
     14 C24         12.9480    -1.8790    11.1510 c3         1 28G       0.214400
     15 C27          9.2000    -7.1900     6.5830 ca         1 28G      -0.050000
     16 C31         10.7180    -5.4330     7.2030 ca         1 28G       0.400200
     17 C28         10.1700    -8.0950     6.9750 ca         1 28G      -0.222300
     18 C29         11.3720    -7.6260     7.4700 ca         1 28G       0.401200
     19 C26          9.4790    -5.8250     6.7000 cp         1 28G      -0.134300
     20 C5           3.7780    -1.3330     2.4090 c          1 28G       0.548100
     21 C25         11.4690    -2.0790    11.4930 c3         1 28G       0.114300
     22 C18          8.3830    -2.1500     9.2930 c3         1 28G       0.202400
     23 N30         11.6070    -6.3320     7.5740 nb         1 28G      -0.582000
     24 N9           6.2840    -3.5460     3.6640 nd         1 28G      -0.515100
     25 N14          7.2980    -2.5110     6.8890 nb         1 28G      -0.604000
     26 N20         10.6560    -1.8440    10.2910 n3         1 28G      -0.552600
     27 N7           4.6330    -2.3740     2.4340 ns         1 28G      -0.003400
     28 N4           2.9930    -1.1320     1.3320 ns         1 28G      -0.199900
     29 O6           3.7130    -0.5760     3.3580 o          1 28G      -0.663100
     30 O23         13.1350    -0.5650    10.6180 os         1 28G      -0.413600
     31 S16          5.4510    -1.5710     4.9780 ss         1 28G      -0.205500
     32 H1          -0.5420     0.0000     0.9380 ha         1 28G       0.087500
     33 H2          -0.5420     0.0000    -0.9380 ha         1 28G       0.087500
     34 H3           1.8510     0.0000    -0.9380 ha         1 28G       0.106000
     35 H4           2.6180     0.9250     1.4020 h1         1 28G       0.031700
     36 H5           1.3630    -0.0890     2.1270 h1         1 28G       0.031700
     37 H6           8.2400    -5.3750     4.5180 ha         1 28G       0.125000
     38 H7           9.0250    -3.1300    11.0940 h1         1 28G       0.021700
     39 H8           8.7740    -1.3870    11.2640 h1         1 28G       0.021700
     40 H10         10.5790     0.2380    10.5210 h1         1 28G       0.016450
     41 H11         12.6450    -0.9940     8.6620 h1         1 28G       0.013950
     42 H12         12.5340     0.7150     9.1190 h1         1 28G       0.013950
     43 H13         13.2500    -2.6130    10.4130 h1         1 28G       0.013950
     44 H14         13.5440    -1.9930    12.0480 h1         1 28G       0.013950
     45 H15          8.2480    -7.5300     6.1910 ha         1 28G       0.110000
     46 H16         10.9300    -4.3810     7.3490 h4         1 28G       0.000100
     47 H17          9.9880    -9.1600     6.8960 ha         1 28G       0.114000
     48 H18         12.1320    -8.3320     7.7820 h4         1 28G      -0.021900
     49 H19         11.3140    -3.0930    11.8410 h1         1 28G       0.016450
     50 H20         11.1800    -1.3770    12.2660 h1         1 28G       0.016450
     51 H21          8.5810    -1.2210     8.7720 h1         1 28G       0.015200
     52 H22          7.3210    -2.2320     9.4930 h1         1 28G       0.015200
     53 H24          4.6820    -3.0010     1.6550 hn         1 28G       0.170500
     54 H25          3.0700    -1.7350     0.5370 hn         1 28G       0.171500
     55 H9          10.2890    -0.3450     8.8720 h1         1 28G       0.016450
@<TRIPOS>BOND
     1     1     2 2   
     2     1    32 1   
     3     1    33 1   
     4     2     3 1   
     5     2    34 1   
     6     3    28 1   
     7     3    35 1   
     8     3    36 1   
     9     4    24 2   
    10     4    27 1   
    11     4    31 1   
    12     5     6 ar  
    13     5     9 ar  
    14     5    24 1   
    15     6     7 ar  
    16     6    37 1   
    17     7     8 ar  
    18     7    19 1   
    19     8    10 1   
    20     8    25 ar  
    21     9    25 ar  
    22     9    31 1   
    23    10    22 1   
    24    11    22 1   
    25    11    26 1   
    26    11    38 1   
    27    11    39 1   
    28    12    13 1   
    29    12    26 1   
    30    12    40 1   
    31    12    55 1   
    32    13    30 1   
    33    13    41 1   
    34    13    42 1   
    35    14    21 1   
    36    14    30 1   
    37    14    43 1   
    38    14    44 1   
    39    15    17 ar  
    40    15    19 ar  
    41    15    45 1   
    42    16    19 ar  
    43    16    23 ar  
    44    16    46 1   
    45    17    18 ar  
    46    17    47 1   
    47    18    23 ar  
    48    18    48 1   
    49    20    27 1   
    50    20    28 1   
    51    20    29 2   
    52    21    26 1   
    53    21    49 1   
    54    21    50 1   
    55    22    51 1   
    56    22    52 1   
    57    27    53 1   
    58    28    54 1   
@<TRIPOS>SUBSTRUCTURE
     1 28G         1 TEMP              0 ****  ****    0 ROOT
