@<TRIPOS>MOLECULE
28H
   23    20     1     0     0
SMALL
bcc


@<TRIPOS>ATOM
      1 CCB        -1.6020   -0.3340   -0.2070 c3        1 28H     -0.127800
      2 CCA         2.9650   -0.6560    1.5680 c2        1 28H     -0.214200
      3 CCC         1.6920   -0.4080    1.2750 c2        1 28H     -0.219000
      4 CBZ         3.8380   -1.5550    0.7550 c3        1 28H      0.178600
      5 OCF         3.1620   -2.6950    0.2740 oh        1 28H     -0.641800
      6 CBY         1.4080   -0.4790   -3.7610 ce        1 28H     -0.199200
      7 CCE         2.2030    0.0970   -4.6570 c2        1 28H     -0.244000
      8 CBX         1.9040   -1.1060   -2.4900 c         1 28H      0.886800
      9 OCD         3.1400   -1.1030   -2.2110 o         1 28H     -0.851300
     10 H1         -0.8090   -0.8000   -0.8430 hc        1 28H      0.031200
     11 H2         -2.3940   -1.0810    0.0130 hc        1 28H      0.031200
     12 H3         -2.0500    0.5330   -0.7410 hc        1 28H      0.031200
     13 H4         -1.1430    0.0130    0.7450 hc        1 28H      0.031200
     14 H5          3.4620   -0.1850    2.4310 ha        1 28H      0.082000
     15 H6          1.0690    0.2660    1.8770 ha        1 28H      0.125500
     16 H7          1.1970   -0.8610    0.3950 ha        1 28H      0.125500
     17 H8          4.6720   -1.9590    1.3950 h1        1 28H      0.037700
     18 H9          2.6410   -2.4100   -0.5030 ho        1 28H      0.468000
     19 H10         4.2710   -0.9700   -0.1050 h1        1 28H      0.037700
     20 H11         0.3170   -0.5340   -3.8980 ha        1 28H      0.099000
     21 H12         1.8310    0.5510   -5.5840 ha        1 28H      0.092000
     22 H13         3.2910    0.1450   -4.5090 ha        1 28H      0.092000
     23 OXT         1.0510   -1.6360   -1.7090 o         1 28H     -0.851300
@<TRIPOS>BOND
     1    1   10 1   
     2    1   11 1   
     3    1   12 1   
     4    1   13 1   
     5    2    3 2   
     6    2    4 1   
     7    2   14 1   
     8    3   15 1   
     9    3   16 1   
    10    4    5 1   
    11    4   17 1   
    12    4   19 1   
    13    5   18 1   
    14    6    7 2   
    15    6    8 1   
    16    6   20 1   
    17    7   21 1   
    18    7   22 1   
    19    8    9 1   
    20    8   23 1   
@<TRIPOS>SUBSTRUCTURE
     1 28H         1 TEMP              0 ****  ****    0 ROOT
