@<TRIPOS>MOLECULE
molecule
   23    22     1     0     0
SMALL
bcc


@<TRIPOS>ATOM
      1 CCB          0.0000     0.0000     0.0000 c3         1 28H      -0.083100
      2 CCA          1.5290     0.0000     0.0000 c3         1 28H      -0.100700
      3 CCC          2.0390     0.0000     1.4430 c3         1 28H      -0.083100
      4 CBZ          2.0400    -1.2500    -0.7200 c3         1 28H       0.177100
      5 OCF          1.4700    -2.4130    -0.1180 oh         1 28H      -0.598800
      6 CBY          1.6350    -1.1890    -2.1940 c3         1 28H      -0.184700
      7 CCE          2.2450     0.0570    -2.8400 c3         1 28H      -0.070100
      8 CBX          2.1370    -2.4190    -2.9050 c          1 28H       0.903600
      9 OCD          2.7550    -3.2590    -2.2940 o          1 28H      -0.855300
     10 H1          -0.3610    -0.0470    -1.0200 hc         1 28H       0.026033
     11 H2          -0.3610     0.9070     0.4690 hc         1 28H       0.026033
     12 H3          -0.3610    -0.8600     0.5510 hc         1 28H       0.026033
     13 H4           1.8910     0.8840    -0.5110 hc         1 28H       0.046700
     14 H5           1.7920     0.9440     1.9140 hc         1 28H       0.026033
     15 H6           1.5730    -0.8100     1.9910 hc         1 28H       0.026033
     16 H7           3.1140    -0.1340     1.4460 hc         1 28H       0.026033
     17 H8           3.1190    -1.2950    -0.6430 h1         1 28H       0.034700
     18 H9           2.1490    -2.9140     0.3030 ho         1 28H       0.396000
     19 H10          0.5550    -1.1430    -2.2710 hc         1 28H       0.053700
     20 H11          1.4530     0.7270    -3.1510 hc         1 28H       0.020367
     21 H12          2.8320    -0.2340    -3.7020 hc         1 28H       0.020367
     22 H13          2.8820     0.5600    -2.1220 hc         1 28H       0.020367
     23 OXT          1.8980    -2.5820    -4.2160 o          1 28H      -0.855300
@<TRIPOS>BOND
     1     9     8 1   
     2     3     2 1   
     3     8     6 1   
     4     1     2 1   
     5     6     7 1   
     6     6     4 1   
     7     2     4 1   
     8     4     5 1   
     9     1    10 1   
    10     1    11 1   
    11     1    12 1   
    12     2    13 1   
    13     3    14 1   
    14     3    15 1   
    15     3    16 1   
    16     4    17 1   
    17     5    18 1   
    18     6    19 1   
    19     7    20 1   
    20     7    21 1   
    21     7    22 1   
    22     8    23 1   
@<TRIPOS>SUBSTRUCTURE
     1 28H         1 TEMP              0 ****  ****    0 ROOT
