@<TRIPOS>MOLECULE
molecule
   20    20     1     0     0
SMALL
bcc


@<TRIPOS>ATOM
      1 CAH          1.5310     0.0000     0.0000 c3         1 28K       0.167100
      2 CBP          2.0390     0.0000     1.4430 c3         1 28K      -0.107100
      3 CAG          0.0000     0.0000     0.0000 cx         1 28K       0.104000
      4 OBO         -0.6660     1.1210    -0.5850 op         1 28K      -0.392600
      5 CBN         -0.7120    -0.0860    -1.3520 cx         1 28K       0.036400
      6 CAF         -0.6540    -0.6680     1.1820 c2         1 28K      -0.212200
      7 CAE         -1.4620     0.0300     1.9760 ce         1 28K      -0.152200
      8 CAD         -2.1000    -0.6210     3.1300 c          1 28K       0.868800
      9 OBM         -1.8890    -1.7970     3.3570 o          1 28K      -0.842300
     10 H40          1.8920     0.8850    -0.5100 h1         1 28K       0.024700
     11 H41          1.8090    -0.9510     1.9070 hc         1 28K       0.046367
     12 H42          3.1120     0.1540     1.4480 hc         1 28K       0.046367
     13 H43          1.5580     0.7980     1.9950 hc         1 28K       0.046367
     14 H44         -1.6620    -0.6070    -1.3500 h1         1 28K       0.074700
     15 H45         -0.0680    -0.1140    -2.2220 h1         1 28K       0.074700
     16 H46         -0.4660    -1.7150     1.3850 ha         1 28K       0.162000
     17 H47         -1.6500     1.0770     1.7730 ha         1 28K       0.114000
     18 OXT         -2.9190     0.0850     3.9340 o          1 28K      -0.842300
     19 O1           2.0070    -1.1670    -0.6730 oh         1 28K      -0.603800
     20 H1           2.8140    -0.9660    -1.1170 ho         1 28K       0.388000
@<TRIPOS>BOND
     1     5     4 1   
     2     5     3 1   
     3     4     3 1   
     4     7     8 1   
     5     7     6 2   
     6     8     9 1   
     7     3     6 1   
     8     3     1 1   
     9     2     1 1   
    10     1    10 1   
    11     2    11 1   
    12     2    12 1   
    13     2    13 1   
    14     5    14 1   
    15     5    15 1   
    16     6    16 1   
    17     7    17 1   
    18     8    18 1   
    19     1    19 1   
    20    19    20 1   
@<TRIPOS>SUBSTRUCTURE
     1 28K         1 TEMP              0 ****  ****    0 ROOT
