@<TRIPOS>MOLECULE
28K
   20    19     1     0     0
SMALL
bcc


@<TRIPOS>ATOM
      1 CAH         1.7860   -0.1030    0.1980 c3        1 28K      0.014000
      2 CBP         2.8360   -1.0760    0.6990 c3        1 28K     -0.208000
      3 CAG         0.6920   -0.8290   -0.5780 c3        1 28K     -0.165000
      4 OBO        -0.2900    0.1290   -1.0510 os        1 28K     -0.132000
      5 CBN        -1.2940    0.5480   -0.3540 c1        1 28K     -0.010000
      6 CAF        -1.5790    0.1450    0.9910 c2        1 28K     -0.349000
      7 CAE        -2.6790    0.5700    1.6420 c2        1 28K     -0.013000
      8 CAD        -3.0040    0.1590    3.0680 c2        1 28K      0.324000
      9 OBM        -2.2380   -0.6550    3.6540 o         1 28K     -0.552000
     10 H40         2.3700   -1.7820    1.4260 hc        1 28K      0.079333
     11 H41         3.2690   -1.6530   -0.1510 hc        1 28K      0.079333
     12 H42         1.3180    0.4480    1.0650 h1        1 28K      0.095000
     13 H43         3.6590   -0.5180    1.2040 hc        1 28K      0.079333
     14 H44         0.2070   -1.6120    0.0530 h1        1 28K      0.099500
     15 H45         1.1030   -1.2820   -1.5160 h1        1 28K      0.099500
     16 H46        -0.8860   -0.5300    1.5300 ha        1 28K      0.127000
     17 H47        -3.4100    1.2460    1.1680 ha        1 28K      0.116000
     18 OXT        -4.0390    0.6690    3.5830 o         1 28K     -0.552000
     19 O1          2.4540    0.8410   -0.6340 oh        1 28K     -0.344000
     20 H1          1.7610    1.3490   -1.0760 ho        1 28K      0.212000
@<TRIPOS>BOND
     1    1    2 1   
     2    1    3 1   
     3    1   12 1   
     4    1   19 1   
     5    2   10 1   
     6    2   11 1   
     7    2   13 1   
     8    3    4 1   
     9    3   14 1   
    10    3   15 1   
    11    4    5 1   
    12    5    6 1   
    13    6    7 1   
    14    6   16 1   
    15    7    8 1   
    16    7   17 1   
    17    8    9 1   
    18    8   18 1   
    19   19   20 1   
@<TRIPOS>SUBSTRUCTURE
     1 28K         1 TEMP              0 ****  ****    0 ROOT
