@<TRIPOS>MOLECULE
molecule
   65    68     1     0     0
SMALL
bcc


@<TRIPOS>ATOM
      1 C1           0.0000     0.0000     0.0000 c3         1 28L      -0.242300
      2 S2           1.8140     0.0000     0.0000 s6         1 28L       1.323900
      3 N3           2.2270     0.0000     1.6040 nu         1 28L      -0.770500
      4 C4           1.8460     1.0640     2.4220 ca         1 28L       0.130600
      5 C5           1.2880     0.8140     3.6720 ca         1 28L      -0.151000
      6 C6           0.9110     1.8630     4.4810 ca         1 28L      -0.104500
      7 C7           2.0300     2.3720     1.9910 ca         1 28L      -0.151000
      8 C8           1.6560     3.4260     2.7980 ca         1 28L      -0.104500
      9 C9           1.0890     3.1770     4.0480 cp         1 28L      -0.041000
     10 C10          0.6840     4.3070     4.9180 cp         1 28L      -0.164300
     11 C11          0.8680     5.6310     4.4890 ca         1 28L       0.444200
     12 N12          0.5190     6.6480     5.2370 nb         1 28L      -0.669000
     13 C13          0.1160     4.0660     6.1610 ca         1 28L      -0.073000
     14 C14         -0.2510     5.1710     6.9460 ca         1 28L      -0.170300
     15 C15         -0.0270     6.4760     6.4440 ca         1 28L       0.444600
     16 C16         -0.3970     7.5900     7.2360 ca         1 28L      -0.085100
     17 C17         -0.1750     8.9650     6.7340 ce         1 28L      -0.126400
     18 C18          0.8380     9.7080     7.2260 c2         1 28L      -0.125200
     19 C19          1.0150    11.1050     6.6680 c3         1 28L      -0.132500
     20 C20          0.0470    11.5640     5.6010 c2         1 28L       0.703600
     21 O21          0.1590    12.7920     5.0710 os         1 28L      -0.401400
     22 C22         -0.8070    13.1610     4.0520 c3         1 28L       0.138700
     23 N23         -0.8980    10.7590     5.1990 ne         1 28L      -0.779100
     24 C24         -1.0570     9.5230     5.6920 c          1 28L       0.733700
     25 O25         -1.9600     8.8320     5.2590 o          1 28L      -0.511100
     26 C26         -0.9670     7.3870     8.4820 ca         1 28L      -0.094000
     27 C27         -1.1820     6.1050     8.9670 ca         1 28L      -0.081300
     28 C28         -1.8050     5.9160    10.3250 c3         1 28L      -0.015700
     29 C29         -0.8910     5.0460    11.1900 c3         1 28L      -0.082767
     30 C30         -1.9920     7.2810    10.9930 c3         1 28L      -0.082767
     31 C31         -3.1650     5.2330    10.1730 c3         1 28L      -0.082767
     32 C32         -0.8330     5.0000     8.2180 ca         1 28L       0.127100
     33 O33         -1.0500     3.7520     8.7060 os         1 28L      -0.350900
     34 C34         -2.1670     3.0340     8.1770 c3         1 28L       0.131700
     35 O35          2.3130    -1.2370    -0.4910 o          1 28L      -0.626300
     36 O36          2.3130     1.2380    -0.4910 o          1 28L      -0.626300
     37 H1          -0.3610    -0.3720    -0.9510 h1         1 28L       0.101367
     38 H2          -0.3610     1.0100     0.1530 h1         1 28L       0.101367
     39 H3          -0.3610    -0.6380     0.7980 h1         1 28L       0.101367
     40 H4           2.7630    -0.7560     1.9830 hn         1 28L       0.467800
     41 H5           1.1490    -0.2060     4.0080 ha         1 28L       0.159500
     42 H6           0.4740     1.6680     5.4530 ha         1 28L       0.139000
     43 H7           2.4700     2.5650     1.0200 ha         1 28L       0.159500
     44 H8           1.7980     4.4450     2.4600 ha         1 28L       0.139000
     45 H9           1.3090     5.8160     3.5170 h4         1 28L       0.027100
     46 H10          0.1970     3.0840     6.6120 ha         1 28L       0.152000
     47 H11          1.4990     9.3210     7.9920 ha         1 28L       0.156000
     48 H12          0.9470    11.8010     7.4950 hc         1 28L       0.086700
     49 H13          2.0140    11.1680     6.2540 hc         1 28L       0.086700
     50 H14         -1.8060    13.1090     4.4670 h1         1 28L       0.058033
     51 H15         -0.7270    12.4790     3.2150 h1         1 28L       0.058033
     52 H16         -0.6080    14.1710     3.7150 h1         1 28L       0.058033
     53 H17         -1.2490     8.2410     9.0860 ha         1 28L       0.148000
     54 H18         -1.0620     5.2700    12.2360 hc         1 28L       0.039033
     55 H19         -1.1060     4.0010    11.0040 hc         1 28L       0.039033
     56 H20          0.1440     5.2510    10.9420 hc         1 28L       0.039033
     57 H21         -1.0310     7.7730    11.0850 hc         1 28L       0.039033
     58 H22         -2.4240     7.1450    11.9780 hc         1 28L       0.039033
     59 H23         -2.6540     7.8910    10.3900 hc         1 28L       0.039033
     60 H24         -3.8650     5.6590    10.8820 hc         1 28L       0.039033
     61 H25         -3.5350     5.3840     9.1660 hc         1 28L       0.039033
     62 H26         -3.0590     4.1720    10.3630 hc         1 28L       0.039033
     63 H27         -2.7690     3.6990     7.5700 h1         1 28L       0.038367
     64 H28         -1.8120     2.2110     7.5680 h1         1 28L       0.038367
     65 H29         -2.7660     2.6470     8.9920 h1         1 28L       0.038367
@<TRIPOS>BOND
     1    29    28 1
     2    21    22 1
     3    21    20 1
     4    19    20 1
     5    19    18 1
     6    20    23 2
     7    18    17 2
     8    23    24 1
     9    28    30 1
    10    28    31 1
    11    28    27 1
    12    17    24 1
    13    17    16 1
    14    26    27 ar
    15    26    16 ar
    16    24    25 2
    17    27    32 ar
    18    16    15 ar
    19    32    33 1
    20    32    14 ar
    21    15    14 ar
    22    15    12 ar
    23    33    34 1
    24    14    13 ar
    25    12    11 ar
    26    11    10 ar
    27    13    10 ar
    28    10     9 1
    29     9     8 ar
    30     9     6 ar
    31     8     7 ar
    32     6     5 ar
    33     7     4 ar
    34     5     4 ar
    35     4     3 1
    36     3     2 1
    37    36     2 2
    38     1     2 1
    39     2    35 2
    40     1    37 1
    41     1    38 1
    42     1    39 1
    43     3    40 1
    44     5    41 1
    45     6    42 1
    46     7    43 1
    47     8    44 1
    48    11    45 1
    49    13    46 1
    50    18    47 1
    51    19    48 1
    52    19    49 1
    53    22    50 1
    54    22    51 1
    55    22    52 1
    56    26    53 1
    57    29    54 1
    58    29    55 1
    59    29    56 1
    60    30    57 1
    61    30    58 1
    62    30    59 1
    63    31    60 1
    64    31    61 1
    65    31    62 1
    66    34    63 1
    67    34    64 1
    68    34    65 1
@<TRIPOS>SUBSTRUCTURE
     1 28L         1 TEMP              0 ****  ****    0 ROOT
