@<TRIPOS>MOLECULE
28L
   65    68     1     0     0
SMALL
bcc


@<TRIPOS>ATOM
      1 C1           0.0000     0.0000     0.0000 c3         1 28L       0.015700
      2 S2           1.8140     0.0000     0.0000 s6         1 28L       0.949900
      3 N3           2.2270     0.0000     1.6040 nu         1 28L      -0.411500
      4 C4           1.8460     1.0640     2.4220 ca         1 28L       0.053600
      5 C5           1.2880     0.8140     3.6720 ca         1 28L      -0.140000
      6 C6           0.9110     1.8630     4.4810 ca         1 28L      -0.078000
      7 C7           2.0300     2.3720     1.9910 ca         1 28L      -0.140000
      8 C8           1.6560     3.4260     2.7980 ca         1 28L      -0.078000
      9 C9           1.0890     3.1770     4.0480 cp         1 28L      -0.045000
     10 C10          0.6840     4.3070     4.9180 cp         1 28L      -0.147300
     11 C11          0.8680     5.6310     4.4890 ca         1 28L       0.413200
     12 N12          0.5190     6.6480     5.2370 nb         1 28L      -0.558000
     13 C13          0.1160     4.0660     6.1610 ca         1 28L      -0.063000
     14 C14         -0.2510     5.1710     6.9460 ca         1 28L      -0.164300
     15 C15         -0.0270     6.4760     6.4440 ca         1 28L       0.398600
     16 C16         -0.3970     7.5900     7.2360 ca         1 28L      -0.080100
     17 C17         -0.1750     8.9650     6.7340 ce         1 28L      -0.121400
     18 C18          0.8380     9.7080     7.2260 c2         1 28L      -0.105200
     19 C19          1.0150    11.1050     6.6680 c3         1 28L      -0.050500
     20 C20          0.0470    11.5640     5.6010 c2         1 28L       0.663600
     21 O21          0.1590    12.7920     5.0710 os         1 28L      -0.393400
     22 C22         -0.8070    13.1610     4.0520 c3         1 28L       0.263700
     23 N23         -0.8980    10.7590     5.1990 ne         1 28L      -0.685100
     24 C24         -1.0570     9.5230     5.6920 c          1 28L       0.735700
     25 O25         -1.9600     8.8320     5.2590 o          1 28L      -0.549100
     26 C26         -0.9670     7.3870     8.4820 ca         1 28L      -0.082000
     27 C27         -1.1820     6.1050     8.9670 ca         1 28L      -0.089300
     28 C28         -1.8050     5.9160    10.3250 c3         1 28L      -0.001700
     29 C29         -0.8910     5.0460    11.1900 c3         1 28L      -0.004100
     30 C30         -1.9920     7.2810    10.9930 c3         1 28L      -0.004100
     31 C31         -3.1650     5.2330    10.1730 c3         1 28L      -0.004100
     32 C32         -0.8330     5.0000     8.2180 ca         1 28L       0.138100
     33 O33         -1.0500     3.7520     8.7060 os         1 28L      -0.331900
     34 C34         -2.1670     3.0340     8.1770 c3         1 28L       0.241700
     35 O35          2.3130    -1.2370    -0.4910 o          1 28L      -0.583300
     36 O36          2.3130     1.2380    -0.4910 o          1 28L      -0.583300
     37 H1          -0.3610    -0.3720    -0.9510 h1         1 28L       0.065367
     38 H2          -0.3610     1.0100     0.1530 h1         1 28L       0.065367
     39 H3          -0.3610    -0.6380     0.7980 h1         1 28L       0.065367
     40 H4           2.7630    -0.7560     1.9830 hn         1 28L       0.351800
     41 H5           1.1490    -0.2060     4.0080 ha         1 28L       0.138000
     42 H6           0.4740     1.6680     5.4530 ha         1 28L       0.113500
     43 H7           2.4700     2.5650     1.0200 ha         1 28L       0.138000
     44 H8           1.7980     4.4450     2.4600 ha         1 28L       0.113500
     45 H9           1.3090     5.8160     3.5170 h4         1 28L      -0.012900
     46 H10          0.1970     3.0840     6.6120 ha         1 28L       0.130000
     47 H11          1.4990     9.3210     7.9920 ha         1 28L       0.125000
     48 H12          0.9470    11.8010     7.4950 hc         1 28L       0.046200
     49 H13          2.0140    11.1680     6.2540 hc         1 28L       0.046200
     50 H14         -1.8060    13.1090     4.4670 h1         1 28L       0.007700
     51 H15         -0.7270    12.4790     3.2150 h1         1 28L       0.007700
     52 H16         -0.6080    14.1710     3.7150 h1         1 28L       0.007700
     53 H17         -1.2490     8.2410     9.0860 ha         1 28L       0.126000
     54 H18         -1.0620     5.2700    12.2360 hc         1 28L       0.010811
     55 H19         -1.1060     4.0010    11.0040 hc         1 28L       0.010811
     56 H20          0.1440     5.2510    10.9420 hc         1 28L       0.010811
     57 H21         -1.0310     7.7730    11.0850 hc         1 28L       0.010811
     58 H22         -2.4240     7.1450    11.9780 hc         1 28L       0.010811
     59 H23         -2.6540     7.8910    10.3900 hc         1 28L       0.010811
     60 H24         -3.8650     5.6590    10.8820 hc         1 28L       0.010811
     61 H25         -3.5350     5.3840     9.1660 hc         1 28L       0.010811
     62 H26         -3.0590     4.1720    10.3630 hc         1 28L       0.010811
     63 H27         -2.7690     3.6990     7.5700 h1         1 28L      -0.003967
     64 H28         -1.8120     2.2110     7.5680 h1         1 28L      -0.003967
     65 H29         -2.7660     2.6470     8.9920 h1         1 28L      -0.003967
@<TRIPOS>BOND
     1     1     2 1   
     2     1    37 1   
     3     1    38 1   
     4     1    39 1   
     5     2     3 1   
     6     2    35 2   
     7     2    36 2   
     8     3     4 1   
     9     3    40 1   
    10     4     5 ar  
    11     4     7 ar  
    12     5     6 ar  
    13     5    41 1   
    14     6     9 ar  
    15     6    42 1   
    16     7     8 ar  
    17     7    43 1   
    18     8     9 ar  
    19     8    44 1   
    20     9    10 1   
    21    10    11 ar  
    22    10    13 ar  
    23    11    12 ar  
    24    11    45 1   
    25    12    15 ar  
    26    13    14 ar  
    27    13    46 1   
    28    14    15 ar  
    29    14    32 ar  
    30    15    16 ar  
    31    16    17 1   
    32    16    26 ar  
    33    17    18 2   
    34    17    24 1   
    35    18    19 1   
    36    18    47 1   
    37    19    20 1   
    38    19    48 1   
    39    19    49 1   
    40    20    21 1   
    41    20    23 2   
    42    21    22 1   
    43    22    50 1   
    44    22    51 1   
    45    22    52 1   
    46    23    24 1   
    47    24    25 2   
    48    26    27 ar  
    49    26    53 1   
    50    27    28 1   
    51    27    32 ar  
    52    28    29 1   
    53    28    30 1   
    54    28    31 1   
    55    29    54 1   
    56    29    55 1   
    57    29    56 1   
    58    30    57 1   
    59    30    58 1   
    60    30    59 1   
    61    31    60 1   
    62    31    61 1   
    63    31    62 1   
    64    32    33 1   
    65    33    34 1   
    66    34    63 1   
    67    34    64 1   
    68    34    65 1   
@<TRIPOS>SUBSTRUCTURE
     1 28L         1 TEMP              0 ****  ****    0 ROOT
