@<TRIPOS>MOLECULE
molecule
   66    69     1     0     0
SMALL
bcc


@<TRIPOS>ATOM
      1 C1           0.0000     0.0000     0.0000 ca         1 28M      -0.067100
      2 C2           1.3850     0.0000     0.0000 ca         1 28M      -0.082000
      3 C3           2.0970     0.0000     1.1910 ca         1 28M      -0.076300
      4 C4           1.4430    -0.0010     2.4040 ca         1 28M       0.119100
      5 C5           0.0340    -0.0020     2.4420 ca         1 28M      -0.167300
      6 C6          -0.7000    -0.0020     1.2310 ca         1 28M       0.435600
      7 N7          -2.0350    -0.0020     1.2590 nb         1 28M      -0.674000
      8 C8          -2.7000    -0.0030     2.3890 ca         1 28M       0.457200
      9 C9          -2.0430    -0.0040     3.6240 ca         1 28M      -0.053700
     10 C10         -0.6610    -0.0040     3.6630 ca         1 28M      -0.115000
     11 N11         -2.7790    -0.0060     4.8120 nh         1 28M      -0.589000
     12 C12         -2.4710     1.1880     5.6290 c3         1 28M       0.150800
     13 C13         -2.5550     0.7580     7.1060 c3         1 28M      -0.093400
     14 C14         -2.8950    -0.7490     7.0690 c3         1 28M      -0.085700
     15 C15         -2.4260    -1.1770     5.6560 c3         1 28M       0.154800
     16 C16         -2.1200    -1.5060     8.1490 c3         1 28M       0.238800
     17 N17         -2.5840    -1.0810     9.4720 n7         1 28M      -0.916100
     18 S18         -2.2020    -1.9780    10.8110 s6         1 28M       1.328900
     19 O19         -2.8290    -1.2900    11.8840 o          1 28M      -0.628300
     20 O20         -2.5850    -3.3010    10.4670 o          1 28M      -0.628300
     21 C21         -0.3980    -1.8510    10.9420 c3         1 28M      -0.250300
     22 O22          2.1550    -0.0030     3.5610 os         1 28M      -0.349900
     23 C23          2.2210     1.2280     4.2830 c3         1 28M       0.130700
     24 C24          3.6030    -0.0000     1.1580 c3         1 28M      -0.015700
     25 C25          4.1270     1.3000     1.7720 c3         1 28M      -0.082433
     26 C26          4.1320    -1.1920     1.9590 c3         1 28M      -0.082433
     27 C27          4.0810    -0.1080    -0.2910 c3         1 28M      -0.082433
     28 C28         -0.7440     0.0070    -1.2780 cc         1 28M      -0.152400
     29 C29         -0.8290     1.1890    -2.0560 c          1 28M       0.692700
     30 O30         -0.2860     2.2110    -1.6750 o          1 28M      -0.653500
     31 N31         -1.5100     1.1790    -3.2180 ns         1 28M      -0.406100
     32 C33         -2.1220     0.0500    -3.6590 cd         1 28M       0.001600
     33 C34         -2.0660    -1.1020    -2.9480 cc         1 28M      -0.242000
     34 C35         -1.3660    -1.1460    -1.7380 cc         1 28M      -0.018000
     35 H1           1.9190     0.0010    -0.9420 ha         1 28M       0.152000
     36 H2          -3.7830    -0.0030     2.3650 h4         1 28M       0.037100
     37 H3          -0.1300    -0.0050     4.6070 ha         1 28M       0.147000
     38 H4          -3.1970     1.9670     5.4310 h1         1 28M       0.048700
     39 H5          -1.4720     1.5400     5.4050 h1         1 28M       0.048700
     40 H6          -1.6020     0.9150     7.5960 hc         1 28M       0.049700
     41 H7          -3.3400     1.3070     7.6120 hc         1 28M       0.049700
     42 H8          -3.9630    -0.9010     7.1780 hc         1 28M       0.081700
     43 H9          -1.3560    -1.3450     5.6450 h1         1 28M       0.052700
     44 H10         -2.9630    -2.0590     5.3270 h1         1 28M       0.052700
     45 H11         -1.0620    -1.2920     8.0510 h1         1 28M       0.047200
     46 H12         -2.2850    -2.5700     8.0330 h1         1 28M       0.047200
     47 H13         -3.1480    -0.2600     9.5650 hn         1 28M       0.458800
     48 H14         -0.0850    -2.1640    11.9300 h1         1 28M       0.097367
     49 H15          0.0640    -2.4880    10.1980 h1         1 28M       0.097367
     50 H16         -0.0950    -0.8240    10.7760 h1         1 28M       0.097367
     51 H17          1.7700     2.0170     3.6930 h1         1 28M       0.037033
     52 H18          1.6850     1.1260     5.2200 h1         1 28M       0.037033
     53 H19          3.2560     1.4730     4.4840 h1         1 28M       0.037033
     54 H20          3.3440     2.0480     1.7560 hc         1 28M       0.038922
     55 H21          4.4330     1.1190     2.7950 hc         1 28M       0.038922
     56 H22          4.9760     1.6540     1.1990 hc         1 28M       0.038922
     57 H23          3.4630    -2.0340     1.8380 hc         1 28M       0.038922
     58 H24          4.1900    -0.9240     3.0070 hc         1 28M       0.038922
     59 H25          5.1180    -1.4590     1.6000 hc         1 28M       0.038922
     60 H26          5.1630    -0.1530    -0.3130 hc         1 28M       0.038922
     61 H27          3.6740    -1.0060    -0.7400 hc         1 28M       0.038922
     62 H28          3.7440     0.7580    -0.8480 hc         1 28M       0.038922
     63 H29         -1.5660     2.0160    -3.7630 hn         1 28M       0.336500
     64 H30         -2.6650     0.0700    -4.5970 h4         1 28M       0.150000
     65 H31         -2.5590    -1.9920    -3.3200 ha         1 28M       0.147000
     66 H32         -1.3180    -2.0630    -1.1640 ha         1 28M       0.144000
@<TRIPOS>BOND
     1    25    24 1   
     2    33    32 2   
     3    33    34 1   
     4    32    31 1   
     5    34    28 2   
     6    24    27 1   
     7    24    26 1   
     8    24     3 1   
     9    31    29 1   
    10     2     3 ar  
    11     2     1 ar  
    12    28    29 1   
    13    28     1 1   
    14    29    30 2   
    15     3     4 ar  
    16     1     6 ar  
    17     4    22 1   
    18     4     5 ar  
    19     6     5 ar  
    20     6     7 ar  
    21    22    23 1   
    22     5    10 ar  
    23     7     8 ar  
    24    10     9 ar  
    25     8     9 ar  
    26     9    11 1   
    27    11    12 1   
    28    11    15 1   
    29    12    13 1   
    30    15    14 1   
    31    13    14 1   
    32    14    16 1   
    33    16    17 1   
    34    17    18 1   
    35    20    18 2   
    36    18    21 1   
    37    18    19 2   
    38     2    35 1   
    39     8    36 1   
    40    10    37 1   
    41    12    38 1   
    42    12    39 1   
    43    13    40 1   
    44    13    41 1   
    45    14    42 1   
    46    15    43 1   
    47    15    44 1   
    48    16    45 1   
    49    16    46 1   
    50    17    47 1   
    51    21    48 1   
    52    21    49 1   
    53    21    50 1   
    54    23    51 1   
    55    23    52 1   
    56    23    53 1   
    57    25    54 1   
    58    25    55 1   
    59    25    56 1   
    60    26    57 1   
    61    26    58 1   
    62    26    59 1   
    63    27    60 1   
    64    27    61 1   
    65    27    62 1   
    66    31    63 1   
    67    32    64 1   
    68    33    65 1   
    69    34    66 1   
@<TRIPOS>SUBSTRUCTURE
     1 28M         1 TEMP              0 ****  ****    0 ROOT
