@<TRIPOS>MOLECULE
28N
   20    22     1     0     0
SMALL
bcc


@<TRIPOS>ATOM
      1 C4           0.0000     0.0000     0.0000 ca         1 28N      -0.104000
      2 C5           1.3840     0.0000     0.0000 ca         1 28N       0.124100
      3 C7           3.2840    -0.7850     1.2310 c3         1 28N       0.251100
      4 C8           4.1020    -0.4180     0.0160 cc         1 28N       0.049900
      5 C15          1.3720     0.0520    -2.4130 ca         1 28N      -0.054000
      6 C11          4.4510     0.2110    -2.0230 c          1 28N       0.671600
      7 O10          5.5930    -0.0210    -1.3430 os         1 28N      -0.040600
      8 N9           5.3530    -0.3730    -0.2020 n2         1 28N      -0.299200
      9 N13          3.4620    -0.0360    -1.1660 n          1 28N       0.149500
     10 O6           2.0780     0.0000     1.1710 os         1 28N      -0.307900
     11 C14          2.0700     0.0150    -1.2230 ca         1 28N      -0.137400
     12 C2          -0.0120     0.0450    -2.3990 ca         1 28N       0.021100
     13 Br1         -0.9730     0.0910    -4.0280 br         1 28N      -0.104100
     14 C3          -0.6930     0.0200    -1.1960 ca         1 28N      -0.056000
     15 H4          -0.5410    -0.0200     0.9380 ha         1 28N       0.125000
     16 H7           3.0180    -1.8330     1.1660 h1         1 28N       0.037700
     17 H7A          3.8370    -0.5030     2.1180 h1         1 28N       0.037700
     18 H15          1.9050    -0.0070    -3.3550 ha         1 28N       0.149000
     19 H3          -1.7770     0.0150    -1.1900 ha         1 28N       0.122000
     20 O12          4.3470     0.5710    -3.1800 o          1 28N      -0.634500
@<TRIPOS>BOND
     1     1     2 ar  
     2     1    14 ar  
     3     1    15 1   
     4     2    10 1   
     5     2    11 ar  
     6     3     4 1   
     7     3    10 1   
     8     3    16 1   
     9     3    17 1   
    10     4     8 2   
    11     4     9 1   
    12     5    11 ar  
    13     5    12 ar  
    14     5    18 1   
    15     6     7 1   
    16     6     9 1   
    17     6    20 2   
    18     7     8 1   
    19     9    11 1   
    20    12    13 1   
    21    12    14 ar  
    22    14    19 1   
@<TRIPOS>SUBSTRUCTURE
     1 28N         1 TEMP              0 ****  ****    0 ROOT
