@<TRIPOS>MOLECULE
molecule
   20    22     1     0     0
SMALL
bcc


@<TRIPOS>ATOM
      1 C4           0.0000     0.0000     0.0000 ca         1 28N      -0.124000
      2 C5           1.3840     0.0000     0.0000 ca         1 28N       0.108100
      3 C7           3.2840    -0.7850     1.2310 c3         1 28N       0.159100
      4 C8           4.1020    -0.4180     0.0160 cc         1 28N       0.258900
      5 C15          1.3720     0.0520    -2.4130 ca         1 28N      -0.084000
      6 C11          4.4510     0.2110    -2.0230 c          1 28N       0.763600
      7 O10          5.5930    -0.0210    -1.3430 os         1 28N      -0.026600
      8 N9           5.3530    -0.3730    -0.2020 n2         1 28N      -0.382200
      9 N13          3.4620    -0.0360    -1.1660 n          1 28N      -0.303500
     10 O6           2.0780     0.0000     1.1710 os         1 28N      -0.320900
     11 C14          2.0700     0.0150    -1.2230 ca         1 28N       0.022600
     12 C2          -0.0120     0.0450    -2.3990 ca         1 28N      -0.020900
     13 Br1         -0.9730     0.0910    -4.0280 br         1 28N      -0.070100
     14 C3          -0.6930     0.0200    -1.1960 ca         1 28N      -0.087000
     15 H4          -0.5410    -0.0200     0.9380 ha         1 28N       0.158000
     16 H7           3.0180    -1.8330     1.1660 h1         1 28N       0.094700
     17 H7A          3.8370    -0.5030     2.1180 h1         1 28N       0.094700
     18 H15          1.9050    -0.0070    -3.3550 ha         1 28N       0.179000
     19 H3          -1.7770     0.0150    -1.1900 ha         1 28N       0.155000
     20 O12          4.3470     0.5710    -3.1800 o          1 28N      -0.574500
@<TRIPOS>BOND
     1    14     1 ar  
     2     1     2 ar  
     3     1    15 1   
     4     2    10 1   
     5     2    11 ar  
     6    10     3 1   
     7     3     4 1   
     8     3    16 1   
     9     3    17 1   
    10     4     9 1   
    11     4     8 2   
    12    12     5 ar  
    13     5    11 ar  
    14     5    18 1   
    15     6    20 2   
    16     9     6 1   
    17     6     7 1   
    18     8     7 1   
    19    11     9 1   
    20    14    12 ar  
    21    13    12 1   
    22    14    19 1   
@<TRIPOS>SUBSTRUCTURE
     1 28N         1 TEMP              0 ****  ****    0 ROOT
