@<TRIPOS>MOLECULE
molecule
   38    39     1     0     0
SMALL
bcc


@<TRIPOS>ATOM
      1 C1           0.0000     0.0000     0.0000 ca         1 28O      -0.066800
      2 C2           1.3950     0.0000     0.0000 ca         1 28O      -0.081000
      3 C3           2.0820     0.0000     1.1950 ca         1 28O      -0.222000
      4 C4           1.3880    -0.0010     2.3970 ca         1 28O       0.147100
      5 C5          -0.0010    -0.0010     2.4010 ca         1 28O      -0.100300
      6 C6          -0.6950    -0.0000     1.2090 ca         1 28O      -0.062000
      7 C7          -0.7510    -0.0010     3.7080 c3         1 28O      -0.009700
      8 C8          -0.3780     1.2470     4.5100 c3         1 28O      -0.082100
      9 C9          -2.2550    -0.0010     3.4330 c3         1 28O      -0.082100
     10 C10         -0.3790    -1.2510     4.5080 c3         1 28O      -0.082100
     11 O11          2.0690    -0.0010     3.5730 os         1 28O      -0.325900
     12 C12          3.4950    -0.0020     3.4970 c3         1 28O       0.125700
     13 C13         -0.7430     0.0060    -1.2830 cc         1 28O      -0.151400
     14 C14         -1.5580    -1.0940    -1.6470 c          1 28O       0.685700
     15 O15         -1.6550    -2.0560    -0.9040 o          1 28O      -0.645500
     16 N16         -2.2270    -1.0730    -2.8150 ns         1 28O      -0.408100
     17 C18         -2.1330    -0.0110    -3.6570 cc         1 28O      -0.000400
     18 C19         -1.3650     1.0590    -3.3480 cd         1 28O      -0.242000
     19 C20         -0.6540     1.0890    -2.1430 cd         1 28O      -0.042000
     20 H1           1.9380     0.0000    -0.9380 ha         1 28O       0.130000
     21 H2           3.1660     0.0000     1.1960 ha         1 28O       0.134000
     22 H3          -1.7780    -0.0000     1.2120 ha         1 28O       0.149000
     23 H4           0.5490     1.0710     5.0420 hc         1 28O       0.037478
     24 H5          -1.1660     1.4690     5.2200 hc         1 28O       0.037478
     25 H6          -0.2530     2.0860     3.8350 hc         1 28O       0.037478
     26 H7          -2.5200    -0.8920     2.8760 hc         1 28O       0.037478
     27 H8          -2.5170     0.8770     2.8550 hc         1 28O       0.037478
     28 H9          -2.7940     0.0110     4.3720 hc         1 28O       0.037478
     29 H10          0.5470    -1.0750     5.0430 hc         1 28O       0.037478
     30 H11         -0.2520    -2.0880     3.8330 hc         1 28O       0.037478
     31 H12         -1.1680    -1.4750     5.2160 hc         1 28O       0.037478
     32 H13          3.8280     0.8670     2.9420 h1         1 28O       0.040033
     33 H14          3.8300    -0.9020     2.9960 h1         1 28O       0.040033
     34 H15          3.9100     0.0290     4.4980 h1         1 28O       0.040033
     35 H17         -2.8010    -1.8520    -3.0680 hn         1 28O       0.335500
     36 H16         -2.6800    -0.0220    -4.5920 h4         1 28O       0.151000
     37 H18         -1.3040     1.8970    -4.0320 ha         1 28O       0.146000
     38 H19         -0.0370     1.9430    -1.8890 ha         1 28O       0.143000
@<TRIPOS>BOND
     1    12    11 1   
     2     3     4 ar  
     3     3     2 ar  
     4    11     4 1   
     5     4     5 ar  
     6     2     1 ar  
     7    15    14 2   
     8     5     6 ar  
     9     5     7 1   
    10    10     7 1   
    11     1     6 ar  
    12     1    13 1   
    13    14    13 1   
    14    14    16 1   
    15     7     9 1   
    16     7     8 1   
    17    13    19 2   
    18    16    17 1   
    19    19    18 1   
    20    17    18 2   
    21     2    20 1   
    22     3    21 1   
    23     6    22 1   
    24     8    23 1   
    25     8    24 1   
    26     8    25 1   
    27     9    26 1   
    28     9    27 1   
    29     9    28 1   
    30    10    29 1   
    31    10    30 1   
    32    10    31 1   
    33    12    32 1   
    34    12    33 1   
    35    12    34 1   
    36    16    35 1   
    37    17    36 1   
    38    18    37 1   
    39    19    38 1   
@<TRIPOS>SUBSTRUCTURE
     1 28O         1 TEMP              0 ****  ****    0 ROOT
