@<TRIPOS>MOLECULE
28O
   38    39     1     0     0
SMALL
bcc


@<TRIPOS>ATOM
      1 C1           0.0000     0.0000     0.0000 ca         1 28O      -0.058800
      2 C2           1.3950     0.0000     0.0000 ca         1 28O      -0.054000
      3 C3           2.0820     0.0000     1.1950 ca         1 28O      -0.212000
      4 C4           1.3880    -0.0010     2.3970 ca         1 28O       0.156100
      5 C5          -0.0010    -0.0010     2.4010 ca         1 28O      -0.114300
      6 C6          -0.6950    -0.0000     1.2090 ca         1 28O      -0.044000
      7 C7          -0.7510    -0.0010     3.7080 c3         1 28O       0.002300
      8 C8          -0.3780     1.2470     4.5100 c3         1 28O      -0.001767
      9 C9          -2.2550    -0.0010     3.4330 c3         1 28O      -0.001767
     10 C10         -0.3790    -1.2510     4.5080 c3         1 28O      -0.001767
     11 O11          2.0690    -0.0010     3.5730 os         1 28O      -0.302900
     12 C12          3.4950    -0.0020     3.4970 c3         1 28O       0.237700
     13 C13         -0.7430     0.0060    -1.2830 cc         1 28O      -0.144400
     14 C14         -1.5580    -1.0940    -1.6470 c          1 28O       0.579700
     15 O15         -1.6550    -2.0560    -0.9040 o          1 28O      -0.695500
     16 N16         -2.2270    -1.0730    -2.8150 ns         1 28O       0.088900
     17 C18         -2.1330    -0.0110    -3.6570 cc         1 28O      -0.151400
     18 C19         -1.3650     1.0590    -3.3480 cd         1 28O      -0.204000
     19 C20         -0.6540     1.0890    -2.1430 cd         1 28O      -0.021000
     20 H1           1.9380     0.0000    -0.9380 ha         1 28O       0.101000
     21 H2           3.1660     0.0000     1.1960 ha         1 28O       0.119000
     22 H3          -1.7780    -0.0000     1.2120 ha         1 28O       0.127000
     23 H4           0.5490     1.0710     5.0420 hc         1 28O       0.009144
     24 H5          -1.1660     1.4690     5.2200 hc         1 28O       0.009144
     25 H6          -0.2530     2.0860     3.8350 hc         1 28O       0.009144
     26 H7          -2.5200    -0.8920     2.8760 hc         1 28O       0.009144
     27 H8          -2.5170     0.8770     2.8550 hc         1 28O       0.009144
     28 H9          -2.7940     0.0110     4.3720 hc         1 28O       0.009144
     29 H10          0.5470    -1.0750     5.0430 hc         1 28O       0.009144
     30 H11         -0.2520    -2.0880     3.8330 hc         1 28O       0.009144
     31 H12         -1.1680    -1.4750     5.2160 hc         1 28O       0.009144
     32 H13          3.8280     0.8670     2.9420 h1         1 28O      -0.002633
     33 H14          3.8300    -0.9020     2.9960 h1         1 28O      -0.002633
     34 H15          3.9100     0.0290     4.4980 h1         1 28O      -0.002633
     35 H17         -2.8010    -1.8520    -3.0680 hn         1 28O       0.168500
     36 H16         -2.6800    -0.0220    -4.5920 h4         1 28O       0.122000
     37 H18         -1.3040     1.8970    -4.0320 ha         1 28O       0.121000
     38 H19         -0.0370     1.9430    -1.8890 ha         1 28O       0.113000
@<TRIPOS>BOND
     1     1     2 ar  
     2     1     6 ar  
     3     1    13 1   
     4     2     3 ar  
     5     2    20 1   
     6     3     4 ar  
     7     3    21 1   
     8     4     5 ar  
     9     4    11 1   
    10     5     6 ar  
    11     5     7 1   
    12     6    22 1   
    13     7     8 1   
    14     7     9 1   
    15     7    10 1   
    16     8    23 1   
    17     8    24 1   
    18     8    25 1   
    19     9    26 1   
    20     9    27 1   
    21     9    28 1   
    22    10    29 1   
    23    10    30 1   
    24    10    31 1   
    25    11    12 1   
    26    12    32 1   
    27    12    33 1   
    28    12    34 1   
    29    13    14 1   
    30    13    19 2   
    31    14    15 2   
    32    14    16 1   
    33    16    17 1   
    34    16    35 1   
    35    17    18 2   
    36    17    36 1   
    37    18    19 1   
    38    18    37 1   
    39    19    38 1   
@<TRIPOS>SUBSTRUCTURE
     1 28O         1 TEMP              0 ****  ****    0 ROOT
