@<TRIPOS>MOLECULE
28P
   48    49     1     0     0
SMALL
bcc


@<TRIPOS>ATOM
      1 CAQ          0.0000     0.0000     0.0000 ca         1 28P      -0.097000
      2 CAR          1.3830     0.0000     0.0000 ca         1 28P      -0.099500
      3 CAS          2.0730     0.0000     1.1980 ca         1 28P      -0.108000
      4 CAT          1.3820    -0.0010     2.3940 ca         1 28P      -0.099500
      5 CAU         -0.0000    -0.0000     2.3940 ca         1 28P      -0.097000
      6 CAP         -0.6910    -0.0010     1.1970 ca         1 28P      -0.080300
      7 CAO         -2.1980     0.0040     1.1970 c3         1 28P       0.097200
      8 CAN         -2.7050    -1.4150     1.1930 ca         1 28P      -0.142300
      9 CAV         -2.9380    -2.0680     2.3880 ca         1 28P      -0.055000
     10 CAW         -3.4040    -3.3690     2.3880 ca         1 28P      -0.178000
     11 CAM         -2.9430    -2.0590    -0.0080 ca         1 28P      -0.055000
     12 CAL         -3.4100    -3.3600    -0.0140 ca         1 28P      -0.178000
     13 CAK         -3.6380    -4.0200     1.1850 ca         1 28P       0.163100
     14 OAJ         -4.0970    -5.2980     1.1810 os         1 28P      -0.303900
     15 CAI         -4.3090    -5.9150     2.4520 c3         1 28P       0.199400
     16 CAH         -4.8220    -7.3430     2.2480 c3         1 28P      -0.047400
     17 CAG         -5.0490    -8.0030     3.6080 c3         1 28P       0.161800
     18 N1          -5.5410    -9.3730     3.4120 n3         1 28P      -0.553600
     19 CAX         -6.8770    -9.3690     2.7980 c3         1 28P       0.167100
     20 CAB         -5.5470   -10.1170     4.6790 c3         1 28P       0.160800
     21 CAC         -5.8230   -11.5960     4.4000 c3         1 28P      -0.140400
     22 CAD         -5.8280   -12.3600     5.6990 c          1 28P       0.981600
     23 OAF         -5.6320   -11.7810     6.7410 o          1 28P      -0.905800
     24 OAE         -6.0520   -13.6830     5.6980 o          1 28P      -0.905800
     25 HAQ         -0.5420    -0.0000    -0.9380 ha         1 28P       0.104500
     26 HAR          1.9250     0.0010    -0.9380 ha         1 28P       0.099500
     27 HAS          3.1560    -0.0000     1.1980 ha         1 28P       0.099000
     28 HAT          1.9240    -0.0010     3.3330 ha         1 28P       0.099500
     29 HAU         -0.5420    -0.0010     3.3320 ha         1 28P       0.104500
     30 HAO         -2.5580     0.5140     2.0820 hc         1 28P       0.017200
     31 HAOA        -2.5580     0.5180     0.3130 hc         1 28P       0.017200
     32 HAV         -2.7550    -1.5600     3.3270 ha         1 28P       0.100000
     33 HAW         -3.5830    -3.8810     3.3250 ha         1 28P       0.120500
     34 HAM         -2.7650    -1.5430    -0.9430 ha         1 28P       0.100000
     35 HAL         -3.5940    -3.8650    -0.9540 ha         1 28P       0.120500
     36 HAI         -3.3760    -5.9430     3.0010 h1         1 28P       0.000700
     37 HAIA        -5.0410    -5.3460     3.0120 h1         1 28P       0.000700
     38 HAH         -5.7560    -7.3160     1.6990 hc         1 28P       0.030700
     39 HAHA        -4.0910    -7.9120     1.6870 hc         1 28P       0.030700
     40 HAG         -5.7800    -7.4330     4.1690 h1         1 28P       0.004200
     41 HAGA        -4.1150    -8.0300     4.1570 h1         1 28P       0.004200
     42 HAX         -7.1500    -8.3550     2.5320 h1         1 28P       0.001033
     43 HAXA        -7.5990    -9.7640     3.5020 h1         1 28P       0.001033
     44 HAXB        -6.8660    -9.9860     1.9070 h1         1 28P       0.001033
     45 HAB         -4.5830   -10.0150     5.1620 h1         1 28P       0.016700
     46 HABA        -6.3190    -9.7220     5.3270 h1         1 28P       0.016700
     47 HAC         -5.0500   -11.9920     3.7520 hc         1 28P       0.012700
     48 HACA        -6.7870   -11.6990     3.9160 hc         1 28P       0.012700
@<TRIPOS>BOND
     1     1     2 ar  
     2     1     6 ar  
     3     1    25 1   
     4     2     3 ar  
     5     2    26 1   
     6     3     4 ar  
     7     3    27 1   
     8     4     5 ar  
     9     4    28 1   
    10     5     6 ar  
    11     5    29 1   
    12     6     7 1   
    13     7     8 1   
    14     7    30 1   
    15     7    31 1   
    16     8     9 ar  
    17     8    11 ar  
    18     9    10 ar  
    19     9    32 1   
    20    10    13 ar  
    21    10    33 1   
    22    11    12 ar  
    23    11    34 1   
    24    12    13 ar  
    25    12    35 1   
    26    13    14 1   
    27    14    15 1   
    28    15    16 1   
    29    15    36 1   
    30    15    37 1   
    31    16    17 1   
    32    16    38 1   
    33    16    39 1   
    34    17    18 1   
    35    17    40 1   
    36    17    41 1   
    37    18    19 1   
    38    18    20 1   
    39    19    42 1   
    40    19    43 1   
    41    19    44 1   
    42    20    21 1   
    43    20    45 1   
    44    20    46 1   
    45    21    22 1   
    46    21    47 1   
    47    21    48 1   
    48    22    23 1   
    49    22    24 1   
@<TRIPOS>SUBSTRUCTURE
     1 28P         1 TEMP              0 ****  ****    0 ROOT
