@<TRIPOS>MOLECULE
molecule
   62    64     1     0     0
SMALL
bcc


@<TRIPOS>ATOM
      1 C1           0.0000     0.0000     0.0000 ca         1 28Q      -0.088000
      2 C2           1.3800     0.0000     0.0000 ca         1 28Q      -0.080300
      3 C3           2.0750     0.0000     1.2010 ca         1 28Q       0.116100
      4 C4           1.3860     0.0010     2.4060 ca         1 28Q      -0.113300
      5 C5           0.0070     0.0020     2.4140 ca         1 28Q      -0.106000
      6 C6          -0.6950     0.0070     1.2080 ca         1 28Q      -0.031800
      7 C7          -2.1770     0.0070     1.2130 cc         1 28Q      -0.161400
      8 C8          -2.8790     1.0880     1.7230 cd         1 28Q      -0.036000
      9 C9          -4.2780     1.0560     1.7110 cd         1 28Q      -0.245000
     10 C10         -4.9280    -0.0200     1.2060 cc         1 28Q       0.003600
     11 N11         -4.2450    -1.0810     0.7060 ns         1 28Q      -0.407100
     12 C13         -2.8980    -1.0930     0.6900 c          1 28Q       0.686700
     13 O14         -2.3020    -2.0530     0.2300 o          1 28Q      -0.646500
     14 C15          2.1450    -0.0040     3.7080 c3         1 28Q      -0.024100
     15 C16          2.6230     1.4150     4.0250 c3         1 28Q      -0.034100
     16 C17          3.2810     1.4320     5.3800 ca         1 28Q      -0.073300
     17 C18          4.6390     1.1970     5.4920 ca         1 28Q      -0.123500
     18 C19          5.2440     1.2120     6.7340 ca         1 28Q      -0.120000
     19 C20          4.4870     1.4640     7.8710 ca         1 28Q       0.105600
     20 C21          3.1230     1.7000     7.7550 ca         1 28Q      -0.120000
     21 C22          2.5250     1.6880     6.5100 ca         1 28Q      -0.123500
     22 N23          5.0960     1.4790     9.1280 nu         1 28Q      -0.779500
     23 S24          6.0160     2.7770     9.5850 s6         1 28Q       1.324900
     24 O25          6.4460     2.4550    10.9010 o          1 28Q      -0.626300
     25 O26          6.9520     2.9350     8.5280 o          1 28Q      -0.626300
     26 C27          4.8530     4.1690     9.6180 c3         1 28Q      -0.245300
     27 O28          3.4340    -0.0010     1.1980 os         1 28Q      -0.353900
     28 C29          4.0820    -1.2430     1.4770 c3         1 28Q       0.131700
     29 C30          2.1320    -0.0010    -1.3050 c3         1 28Q      -0.014700
     30 C31          1.1460     0.1710    -2.4630 c3         1 28Q      -0.081767
     31 C32          3.1370     1.1530    -1.3160 c3         1 28Q      -0.081767
     32 C33          2.8780    -1.3280    -1.4630 c3         1 28Q      -0.081767
     33 H1          -0.5420     0.0020    -0.9380 ha         1 28Q       0.149000
     34 H2          -0.5300     0.0050     3.3550 ha         1 28Q       0.133000
     35 H3          -2.3520     1.9450     2.1250 ha         1 28Q       0.144000
     36 H4          -4.8410     1.8930     2.1060 ha         1 28Q       0.148000
     37 H5          -6.0120    -0.0360     1.2050 h4         1 28Q       0.152000
     38 H6          -4.7490    -1.8630     0.3370 hn         1 28Q       0.337500
     39 H7           3.0010    -0.6630     3.6240 hc         1 28Q       0.051200
     40 H8           1.4970    -0.3530     4.5030 hc         1 28Q       0.051200
     41 H9           3.3360     1.7320     3.2740 hc         1 28Q       0.059200
     42 H10          1.7760     2.0890     4.0270 hc         1 28Q       0.059200
     43 H11          5.2290     1.0000     4.6050 ha         1 28Q       0.137500
     44 H12          6.3080     1.0280     6.8200 ha         1 28Q       0.144000
     45 H13          2.5300     1.8990     8.6400 ha         1 28Q       0.144000
     46 H14          1.4620     1.8720     6.4190 ha         1 28Q       0.137500
     47 H15          4.9520     0.7200     9.7640 hn         1 28Q       0.464800
     48 H16          3.9310     3.8570    10.0930 h1         1 28Q       0.098033
     49 H17          4.6460     4.4910     8.6050 h1         1 28Q       0.098033
     50 H18          5.2870     4.9890    10.1760 h1         1 28Q       0.098033
     51 H19          3.3410    -2.0300     1.5450 h1         1 28Q       0.036367
     52 H20          4.7810    -1.4730     0.6810 h1         1 28Q       0.036367
     53 H21          4.6170    -1.1680     2.4160 h1         1 28Q       0.036367
     54 H22          0.4710    -0.6760    -2.4920 hc         1 28Q       0.038144
     55 H23          0.5770     1.0820    -2.3200 hc         1 28Q       0.038144
     56 H24          1.6920     0.2300    -3.3970 hc         1 28Q       0.038144
     57 H25          2.7270     1.9940    -0.7710 hc         1 28Q       0.038144
     58 H26          3.3360     1.4480    -2.3390 hc         1 28Q       0.038144
     59 H27          4.0590     0.8330    -0.8470 hc         1 28Q       0.038144
     60 H28          2.4510    -2.0640    -0.7930 hc         1 28Q       0.038144
     61 H29          3.9240    -1.1850    -1.2240 hc         1 28Q       0.038144
     62 H30          2.7850    -1.6740    -2.4860 hc         1 28Q       0.038144
@<TRIPOS>BOND
     1    24    23 2   
     2    23    26 1   
     3    23    25 2   
     4    23    22 1   
     5    22    19 1   
     6    19    18 ar  
     7    19    20 ar  
     8    18    17 ar  
     9    20    21 ar  
    10    17    16 ar  
    11    21    16 ar  
    12    16    15 1   
    13    15    14 1   
    14    14     4 1   
    15    28    27 1   
    16     4     5 ar  
    17     4     3 ar  
    18    27     3 1   
    19     5     6 ar  
    20     3     2 ar  
    21    13    12 2   
    22     6     7 1   
    23     6     1 ar  
    24     2     1 ar  
    25     2    29 1   
    26    12     7 1   
    27    12    11 1   
    28     7     8 2   
    29    32    29 1   
    30    31    29 1   
    31    11    10 1   
    32    29    30 1   
    33     8     9 1   
    34    10     9 2   
    35     1    33 1   
    36     5    34 1   
    37     8    35 1   
    38     9    36 1   
    39    10    37 1   
    40    11    38 1   
    41    14    39 1   
    42    14    40 1   
    43    15    41 1   
    44    15    42 1   
    45    17    43 1   
    46    18    44 1   
    47    20    45 1   
    48    21    46 1   
    49    22    47 1   
    50    26    48 1   
    51    26    49 1   
    52    26    50 1   
    53    28    51 1   
    54    28    52 1   
    55    28    53 1   
    56    30    54 1   
    57    30    55 1   
    58    30    56 1   
    59    31    57 1   
    60    31    58 1   
    61    31    59 1   
    62    32    60 1   
    63    32    61 1   
    64    32    62 1   
@<TRIPOS>SUBSTRUCTURE
     1 28Q         1 TEMP              0 ****  ****    0 ROOT
