@<TRIPOS>MOLECULE
28R
   58    61     1     0     0
SMALL
bcc


@<TRIPOS>ATOM
      1 C1          0.0300   -0.0480   -0.1110 ca        1 28R     -0.057800
      2 C2          1.4290    0.0150   -0.0330 ca        1 28R     -0.093000
      3 C3          2.1020    0.2010    1.1780 ca        1 28R     -0.079300
      4 C4          1.3210    0.3330    2.3500 ca        1 28R      0.149100
      5 C5         -0.0820    0.2140    2.2940 ca        1 28R     -0.159900
      6 C6         -0.7240    0.0340    1.0630 ca        1 28R     -0.042000
      7 C7         -0.9180    0.2500    3.4870 cc        1 28R      0.608200
      8 N8         -2.0770    0.8730    3.7000 nd        1 28R     -0.557100
      9 C9         -2.4650    0.5100    5.0100 ca        1 28R      0.075400
     10 C10        -1.4620   -0.3640    5.5540 ca        1 28R      0.016100
     11 O11        -0.4710   -0.5360    4.5910 os        1 28R     -0.284700
     12 C12        -1.5470   -0.9060    6.8270 ca        1 28R     -0.085000
     13 C13        -2.6670   -0.5670    7.5800 ca        1 28R     -0.154000
     14 C14        -3.6720    0.3050    7.0790 ca        1 28R      0.134600
     15 C15        -3.5760    0.8480    5.7800 ca        1 28R     -0.105000
     16 N16        -4.7910    0.6270    7.8710 nh        1 28R     -0.786500
     17 S17        -4.8330    0.8740    9.4780 s6        1 28R      1.470900
     18 O18        -6.1790    1.0930    9.8360 o         1 28R     -0.650800
     19 O19        -4.1420   -0.1290   10.1830 o         1 28R     -0.650800
     20 C20        -3.9810    2.3300    9.6770 c3        1 28R     -0.370300
     21 O21         1.9680    0.4830    3.5680 os        1 28R     -0.335900
     22 C22         1.6960    1.7160    4.2380 c3        1 28R      0.115700
     23 C23         3.6100    0.2270    1.2230 c3        1 28R      0.003300
     24 C24         4.1150   -0.9100    2.1090 c3        1 28R     -0.089767
     25 C25         4.2360    0.0440   -0.1580 c3        1 28R     -0.089767
     26 C26         4.1000    1.5630    1.7730 c3        1 28R     -0.089767
     27 C27        -0.6150   -0.1920   -1.4110 cc        1 28R     -0.144400
     28 C28        -1.8070   -1.0500   -1.5160 c         1 28R      0.689700
     29 O29        -2.3580   -1.6690   -0.5850 o         1 28R     -0.636500
     30 N30        -2.3810   -1.1820   -2.7990 n         1 28R     -0.436100
     31 C32        -1.8700   -0.5310   -3.8910 cc        1 28R      0.017600
     32 C33        -0.7680    0.2820   -3.7910 cd        1 28R     -0.252000
     33 C34        -0.1380    0.4470   -2.5240 cd        1 28R     -0.031000
     34 H1          1.9960   -0.0950   -0.9720 ha        1 28R      0.141000
     35 H2         -1.8230   -0.0650    1.0220 ha        1 28R      0.176000
     36 H3         -0.7740   -1.5800    7.2200 ha        1 28R      0.162000
     37 H4         -2.7680   -1.0010    8.5920 ha        1 28R      0.177000
     38 H5         -4.3540    1.5100    5.3710 ha        1 28R      0.155000
     39 H6         -5.6230    0.7430    7.3350 hn        1 28R      0.460800
     40 H7         -3.8320    2.5470   10.7660 h1        1 28R      0.117700
     41 H8         -4.5170    3.2150    9.2550 h1        1 28R      0.117700
     42 H9         -2.9610    2.3270    9.2220 h1        1 28R      0.117700
     43 H10         2.4200    1.7110    5.0910 h1        1 28R      0.044367
     44 H11         0.6450    1.7320    4.6130 h1        1 28R      0.044367
     45 H12         1.8830    2.5850    3.5620 h1        1 28R      0.044367
     46 H13         3.7310   -0.8000    3.1510 hc        1 28R      0.039700
     47 H14         3.7760   -1.8930    1.7040 hc        1 28R      0.039700
     48 H15         5.2310   -0.8980    2.1360 hc        1 28R      0.039700
     49 H16         3.9340    0.8720   -0.8440 hc        1 28R      0.039700
     50 H17         5.3490    0.0570   -0.0660 hc        1 28R      0.039700
     51 H18         3.9370   -0.9350   -0.6040 hc        1 28R      0.039700
     52 H19         5.2120    1.6260    1.6820 hc        1 28R      0.039700
     53 H20         3.6460    2.4090    1.2040 hc        1 28R      0.039700
     54 H21         3.8320    1.6650    2.8520 hc        1 28R      0.039700
     55 H22        -3.1830   -1.7670   -2.8940 hn        1 28R      0.336500
     56 H23        -2.3940   -0.6970   -4.8500 h4        1 28R      0.154000
     57 H24        -0.3730    0.8020   -4.6720 ha        1 28R      0.153000
     58 H25         0.7430    1.1060   -2.4600 ha        1 28R      0.143000
@<TRIPOS>BOND
     1    1    2 ar
     2    1    6 ar
     3    1   27 1
     4    2    3 ar
     5    2   34 1
     6    3    4 ar
     7    3   23 1
     8    4    5 ar
     9    4   21 1
    10    5    6 ar
    11    5    7 1
    12    6   35 1
    13    7    8 2
    14    7   11 1
    15    8    9 1
    16    9   10 ar
    17    9   15 ar
    18   10   11 1
    19   10   12 ar
    20   12   13 ar
    21   12   36 1
    22   13   14 ar
    23   13   37 1
    24   14   15 ar
    25   14   16 1
    26   15   38 1
    27   16   17 1
    28   16   39 1
    29   17   18 2
    30   17   19 2
    31   17   20 1
    32   20   40 1
    33   20   41 1
    34   20   42 1
    35   21   22 1
    36   22   43 1
    37   22   44 1
    38   22   45 1
    39   23   24 1
    40   23   25 1
    41   23   26 1
    42   24   46 1
    43   24   47 1
    44   24   48 1
    45   25   49 1
    46   25   50 1
    47   25   51 1
    48   26   52 1
    49   26   53 1
    50   26   54 1
    51   27   28 1
    52   27   33 2
    53   28   29 2
    54   28   30 1
    55   30   31 1
    56   30   55 1
    57   31   32 2
    58   31   56 1
    59   32   33 1
    60   32   57 1
    61   33   58 1
@<TRIPOS>SUBSTRUCTURE
     1 28R         1 TEMP              0 ****  ****    0 ROOT
