@<TRIPOS>MOLECULE
molecule
   25    26     1     0     0
SMALL
bcc


@<TRIPOS>ATOM
      1 C1           0.0000     0.0000     0.0000 ca         1 28S      -0.039900
      2 N1           0.0530     0.0030     4.7400 nb         1 28S      -0.836000
      3 Br1         -0.9330    -0.0010    -1.6450 br         1 28S      -0.095100
      4 C2           1.3930     0.0000     0.0000 ca         1 28S      -0.079000
      5 N2           2.0500     0.0020     3.5670 nb         1 28S      -0.780000
      6 C3           2.0950     0.0000     1.1690 ca         1 28S      -0.178300
      7 N3          -2.0570     0.0040     3.6990 nu         1 28S      -0.891900
      8 C4           1.4080     0.0010     2.3890 ca         1 28S       0.485600
      9 C5          -0.0090     0.0020     2.3870 ca         1 28S      -0.330600
     10 C6          -0.7000     0.0060     1.1720 ca         1 28S      -0.060000
     11 C7          -0.6800     0.0030     3.6360 ca         1 28S       0.753200
     12 C8           1.3770     0.0020     4.6930 ca         1 28S       0.737900
     13 C9          -2.7290     0.0050     5.0000 c3         1 28S       0.271000
     14 C10         -4.2230     0.0060     4.7940 c2         1 28S      -0.211200
     15 C11         -4.9610    -0.9220     5.3490 c2         1 28S      -0.190000
     16 H2           1.9260    -0.0000    -0.9430 ha         1 28S       0.148000
     17 H3           3.1780     0.0000     1.1530 ha         1 28S       0.159000
     18 HN3         -2.5960    -0.0340     2.8570 hn         1 28S       0.452800
     19 H6          -1.7750     0.1430     1.1600 ha         1 28S       0.136000
     20 H8           1.9280     0.0020     5.6250 h5         1 28S       0.057100
     21 H9          -2.4420    -0.8790     5.5560 h1         1 28S       0.061700
     22 H9A         -2.4410     0.8900     5.5550 h1         1 28S       0.061700
     23 H10         -4.6850     0.7750     4.1860 ha         1 28S       0.129000
     24 H11         -6.0340    -0.9210     5.2010 ha         1 28S       0.119000
     25 H11A        -4.4990    -1.6900     5.9570 ha         1 28S       0.119000
@<TRIPOS>BOND
     1     1     3 1
     2     1     4 ar
     3     1    10 ar
     4     2    11 ar
     5     2    12 ar
     6     4     6 ar
     7     5     8 ar
     8     5    12 ar
     9     6     8 ar
    10     7    11 1
    11     7    13 1
    12     8     9 ar
    13     9    10 ar
    14     9    11 ar
    15    13    14 1
    16    14    15 2
    17     4    16 1
    18     6    17 1
    19     7    18 1
    20    10    19 1
    21    12    20 1
    22    13    21 1
    23    13    22 1
    24    14    23 1
    25    15    24 1
    26    15    25 1
@<TRIPOS>SUBSTRUCTURE
     1 28S         1 TEMP              0 ****  ****    0 ROOT
