@<TRIPOS>MOLECULE
molecule
   38    39     1     0     0
SMALL
bcc


@<TRIPOS>ATOM
      1 OAA          0.0000     0.0000     0.0000 o          1 28T      -0.837300
      2 CAN          1.2080     0.0000     0.0000 c          1 28T       0.889600
      3 OAD          1.8800     0.0000     1.1630 o          1 28T      -0.837300
      4 CAR          1.9620    -0.0060    -1.3050 c3         1 28T       0.007700
      5 CAK          2.8190     1.2720    -1.4220 c3         1 28T      -0.065400
      6 CAF          2.6880     1.6420    -2.9220 c3         1 28T      -0.111400
      7 CAL          1.2250     1.2260    -3.2190 c3         1 28T       0.096000
      8 NAS          1.0150    -0.0050    -2.4290 n          1 28T      -0.464800
      9 CAP          0.1040    -0.9630    -2.6950 c          1 28T       0.683100
     10 OAC          0.0190    -1.9360    -1.9760 o          1 28T      -0.602100
     11 CAI         -0.8070    -0.8250    -3.8870 c3         1 28T      -0.146400
     12 CAH         -1.7370    -2.0380    -3.9610 c3         1 28T      -0.163400
     13 C           -2.6490    -1.9010    -5.1520 c          1 28T       0.563100
     14 O           -2.5640    -0.9330    -5.8690 o          1 28T      -0.511100
     15 CA          -3.6660    -2.9720    -5.4500 c3         1 28T       0.043500
     16 CB          -2.9780    -4.2170    -6.0510 c3         1 28T      -0.068400
     17 CG          -3.9620    -4.7440    -7.1160 c3         1 28T      -0.084400
     18 CD          -5.1610    -3.7750    -7.0690 c3         1 28T       0.136800
     19 N           -4.6040    -2.5160    -6.5080 n7         1 28T      -0.767200
     20 H2           2.5980    -0.8800    -1.3640 h1         1 28T       0.051700
     21 H3           3.8520     1.0630    -1.1700 hc         1 28T       0.053700
     22 H4           2.4160     2.0610    -0.7980 hc         1 28T       0.053700
     23 H5           3.3820     1.0670    -3.5230 hc         1 28T       0.033700
     24 H6           2.8240     2.7060    -3.0700 hc         1 28T       0.033700
     25 H7           0.5410     2.0020    -2.8960 h1         1 28T       0.031200
     26 H8           1.1000     1.0210    -4.2760 h1         1 28T       0.031200
     27 H9          -0.2130    -0.7700    -4.7920 hc         1 28T       0.061200
     28 H10         -1.3980     0.0780    -3.7880 hc         1 28T       0.061200
     29 H11         -2.3300    -2.0930    -3.0560 hc         1 28T       0.081700
     30 H12         -1.1460    -2.9400    -4.0600 hc         1 28T       0.081700
     31 H13         -4.2130    -3.2410    -4.5550 h1         1 28T       0.045700
     32 H14         -2.0390    -3.9390    -6.5130 hc         1 28T       0.054700
     33 H15         -2.8210    -4.9650    -5.2830 hc         1 28T       0.054700
     34 H16         -3.5000    -4.7230    -8.0960 hc         1 28T       0.044700
     35 H17         -4.2820    -5.7490    -6.8660 hc         1 28T       0.044700
     36 H18         -5.5460    -3.6040    -8.0670 h1         1 28T       0.034700
     37 H19         -5.9360    -4.1650    -6.4200 h1         1 28T       0.034700
     38 H20         -5.3410    -1.9810    -6.0930 hn         1 28T       0.348800
@<TRIPOS>BOND
     1    14    13 2   
     2    13    12 1   
     3    13    15 1   
     4     7     6 1   
     5     7     8 1   
     6    19    18 1   
     7    19    15 1   
     8    11    12 1   
     9    11     9 1   
    10     6     5 1   
    11    18    17 1   
    12    15    16 1   
    13     8     9 1   
    14     8     4 1   
    15     9    10 2   
    16     5     4 1   
    17    16    17 1   
    18     1     2 1   
    19     4     2 1   
    20     2     3 1   
    21     4    20 1   
    22     5    21 1   
    23     5    22 1   
    24     6    23 1   
    25     6    24 1   
    26     7    25 1   
    27     7    26 1   
    28    11    27 1   
    29    11    28 1   
    30    12    29 1   
    31    12    30 1   
    32    15    31 1   
    33    16    32 1   
    34    16    33 1   
    35    17    34 1   
    36    17    35 1   
    37    18    36 1   
    38    18    37 1   
    39    19    38 1   
@<TRIPOS>SUBSTRUCTURE
     1 28T         1 TEMP              0 ****  ****    0 ROOT
