@<TRIPOS>MOLECULE
28T
   38    39     1     0     0
SMALL
bcc


@<TRIPOS>ATOM
      1 OAA          0.0000     0.0000     0.0000 o          1 28T      -0.886800
      2 CAN          1.2080     0.0000     0.0000 c          1 28T       0.976600
      3 OAD          1.8800     0.0000     1.1630 o          1 28T      -0.886800
      4 CAR          1.9620    -0.0060    -1.3050 c3         1 28T      -0.080300
      5 CAK          2.8190     1.2720    -1.4220 c3         1 28T      -0.004400
      6 CAF          2.6880     1.6420    -2.9220 c3         1 28T      -0.050400
      7 CAL          1.2250     1.2260    -3.2190 c3         1 28T       0.041000
      8 NAS          1.0150    -0.0050    -2.4290 n          1 28T      -0.115800
      9 CAP          0.1040    -0.9630    -2.6950 c          1 28T       0.600100
     10 OAC          0.0190    -1.9360    -1.9760 o          1 28T      -0.642100
     11 CAI         -0.8070    -0.8250    -3.8870 c3         1 28T      -0.095400
     12 CAH         -1.7370    -2.0380    -3.9610 c3         1 28T      -0.105400
     13 C           -2.6490    -1.9010    -5.1520 c          1 28T       0.599100
     14 O           -2.5640    -0.9330    -5.8690 o          1 28T      -0.546100
     15 CA          -3.6660    -2.9720    -5.4500 c3         1 28T       0.014500
     16 CB          -2.9780    -4.2170    -6.0510 c3         1 28T      -0.010400
     17 CG          -3.9620    -4.7440    -7.1160 c3         1 28T      -0.027400
     18 CD          -5.1610    -3.7750    -7.0690 c3         1 28T       0.138800
     19 N           -4.6040    -2.5160    -6.5080 n7         1 28T      -0.550200
     20 H2           2.5980    -0.8800    -1.3640 h1         1 28T       0.029700
     21 H3           3.8520     1.0630    -1.1700 hc         1 28T       0.024200
     22 H4           2.4160     2.0610    -0.7980 hc         1 28T       0.024200
     23 H5           3.3820     1.0670    -3.5230 hc         1 28T       0.006200
     24 H6           2.8240     2.7060    -3.0700 hc         1 28T       0.006200
     25 H7           0.5410     2.0020    -2.8960 h1         1 28T       0.006700
     26 H8           1.1000     1.0210    -4.2760 h1         1 28T       0.006700
     27 H9          -0.2130    -0.7700    -4.7920 hc         1 28T       0.030200
     28 H10         -1.3980     0.0780    -3.7880 hc         1 28T       0.030200
     29 H11         -2.3300    -2.0930    -3.0560 hc         1 28T       0.051200
     30 H12         -1.1460    -2.9400    -4.0600 hc         1 28T       0.051200
     31 H13         -4.2130    -3.2410    -4.5550 h1         1 28T       0.025700
     32 H14         -2.0390    -3.9390    -6.5130 hc         1 28T       0.023700
     33 H15         -2.8210    -4.9650    -5.2830 hc         1 28T       0.023700
     34 H16         -3.5000    -4.7230    -8.0960 hc         1 28T       0.014700
     35 H17         -4.2820    -5.7490    -6.8660 hc         1 28T       0.014700
     36 H18         -5.5460    -3.6040    -8.0670 h1         1 28T       0.004700
     37 H19         -5.9360    -4.1650    -6.4200 h1         1 28T       0.004700
     38 H20         -5.3410    -1.9810    -6.0930 hn         1 28T       0.251800
@<TRIPOS>BOND
     1     1     2 1   
     2     2     3 1   
     3     2     4 1   
     4     4     5 1   
     5     4     8 1   
     6     4    20 1   
     7     5     6 1   
     8     5    21 1   
     9     5    22 1   
    10     6     7 1   
    11     6    23 1   
    12     6    24 1   
    13     7     8 1   
    14     7    25 1   
    15     7    26 1   
    16     8     9 1   
    17     9    10 2   
    18     9    11 1   
    19    11    12 1   
    20    11    27 1   
    21    11    28 1   
    22    12    13 1   
    23    12    29 1   
    24    12    30 1   
    25    13    14 2   
    26    13    15 1   
    27    15    16 1   
    28    15    19 1   
    29    15    31 1   
    30    16    17 1   
    31    16    32 1   
    32    16    33 1   
    33    17    18 1   
    34    17    34 1   
    35    17    35 1   
    36    18    19 1   
    37    18    36 1   
    38    18    37 1   
    39    19    38 1   
@<TRIPOS>SUBSTRUCTURE
     1 28T         1 TEMP              0 ****  ****    0 ROOT
