@<TRIPOS>MOLECULE
molecule
   42    41     1     0     0
SMALL
bcc


@<TRIPOS>ATOM
      1 C4           1.5300     0.0000     0.0000 c3         1 28U      -0.123100
      2 C5          -0.5100     0.0000     1.4410 c3         1 28U      -0.090400
      3 C6           0.0990    -1.1820     2.1990 c3         1 28U      -0.097200
      4 C7          -0.4030    -1.1810     3.6190 c2         1 28U      -0.519200
      5 C8          -1.0510    -2.2200     4.0850 c2         1 28U       0.027600
      6 C10         -1.4120    -3.3580     3.1650 c3         1 28U      -0.129900
      7 C13         -3.5740    -0.7270     7.8040 c2         1 28U       0.047600
      8 C15         -3.6830     0.5750     7.0520 c3         1 28U      -0.097400
      9 O16         -0.4770    -1.1670    -0.6750 oh         1 28U      -0.607800
     10 C3           0.0000     0.0000     0.0000 c3         1 28U       0.185000
     11 C2          -0.5020     1.2310    -0.7110 c2         1 28U      -0.208200
     12 C1          -1.2550     1.1110    -1.7760 c2         1 28U      -0.203000
     13 C9          -1.4350    -2.2780     5.5410 c3         1 28U      -0.006200
     14 C11         -2.8680    -1.7680     5.7110 c3         1 28U      -0.081200
     15 C12         -3.2510    -1.8250     7.1670 c2         1 28U      -0.511200
     16 C14         -3.8370    -0.7650     9.2870 c3         1 28U      -0.097400
     17 H1           1.8910     0.3780    -0.9490 hc         1 28U       0.048367
     18 H2           1.8910     0.6330     0.8020 hc         1 28U       0.048367
     19 H3           1.8910    -1.0110     0.1470 hc         1 28U       0.048367
     20 H4          -1.5900    -0.0890     1.4420 hc         1 28U       0.062700
     21 H5          -0.2230     0.9260     1.9260 hc         1 28U       0.062700
     22 H6          -0.1880    -2.1070     1.7150 hc         1 28U       0.064700
     23 H7           1.1790    -1.0930     2.1970 hc         1 28U       0.064700
     24 H8          -1.0460    -0.9170     2.7880 ha         1 28U       0.338000
     25 H11         -2.0700    -2.9960     2.3840 hc         1 28U       0.051367
     26 H12         -1.9140    -4.1340     3.7290 hc         1 28U       0.051367
     27 H13         -0.5100    -3.7610     2.7190 hc         1 28U       0.051367
     28 H15         -4.0580     1.3450     7.7160 hc         1 28U       0.053367
     29 H16         -2.7050     0.8610     6.6840 hc         1 28U       0.053367
     30 H17         -4.3630     0.4540     6.2180 hc         1 28U       0.053367
     31 H18          0.1000    -1.3740    -1.3910 ho         1 28U       0.408000
     32 H19         -0.2400     2.2150    -0.3410 ha         1 28U       0.130000
     33 H20         -1.6160     1.9960    -2.2870 ha         1 28U       0.119500
     34 H21         -1.5170     0.1270    -2.1460 ha         1 28U       0.119500
     35 H22         -0.7600    -1.6570     6.1180 hc         1 28U       0.073700
     36 H23         -1.3730    -3.3010     5.8910 hc         1 28U       0.073700
     37 H24         -3.5430    -2.3890     5.1350 hc         1 28U       0.030200
     38 H25         -2.9300    -0.7450     5.3610 hc         1 28U       0.030200
     39 H26         -3.9950    -1.8050     6.3790 ha         1 28U       0.318000
     40 H28         -4.8530    -0.4440     9.4820 hc         1 28U       0.053367
     41 H29         -3.1450    -0.1030     9.7940 hc         1 28U       0.053367
     42 H30         -3.7020    -1.7760     9.6510 hc         1 28U       0.053367
@<TRIPOS>BOND
     1     4     3 1
     2     4     5 2
     3     3     2 1
     4     5    13 1
     5     5     6 1
     6    13    14 1
     7     2    10 1
     8    14    15 1
     9     1    10 1
    10    10    11 1
    11    10     9 1
    12    15     7 2
    13    11    12 2
    14    16     7 1
    15     7     8 1
    16     1    17 1
    17     1    18 1
    18     1    19 1
    19     2    20 1
    20     2    21 1
    21     3    22 1
    22     3    23 1
    23     4    24 1
    24     6    25 1
    25     6    26 1
    26     6    27 1
    27     8    28 1
    28     8    29 1
    29     8    30 1
    30     9    31 1
    31    11    32 1
    32    12    33 1
    33    12    34 1
    34    13    35 1
    35    13    36 1
    36    14    37 1
    37    14    38 1
    38    15    39 1
    39    16    40 1
    40    16    41 1
    41    16    42 1
@<TRIPOS>SUBSTRUCTURE
     1 28U         1 TEMP              0 ****  ****    0 ROOT
