@<TRIPOS>MOLECULE
28U
   42    41     1     0     0
SMALL
bcc


@<TRIPOS>ATOM
      1 C4          1.1970   -1.0910   -0.7360 c3        1 28U     -0.121100
      2 C5          0.1340    0.1810    1.1810 c3        1 28U     -0.058400
      3 C6         -0.2810   -1.0910    1.8900 c3        1 28U     -0.047200
      4 C7         -0.4700   -0.8780    3.3440 c2        1 28U     -0.171200
      5 C8         -0.9490   -1.8210    4.1710 c2        1 28U     -0.125400
      6 C10        -1.3380   -3.1670    3.6870 c3        1 28U     -0.058900
      7 C13        -3.9240   -1.0360    8.0680 c2        1 28U     -0.124400
      8 C15        -5.1800   -0.9400    7.2870 c3        1 28U     -0.057900
      9 O16        -1.1010   -0.3480   -0.7700 oh        1 28U     -0.594800
     10 C3          0.2140    0.0100   -0.3430 c3        1 28U      0.180000
     11 C2          0.6630    1.3100   -0.9530 c2        1 28U     -0.204200
     12 C1         -0.1280    2.1410   -1.6250 c2        1 28U     -0.207000
     13 C9         -1.1070   -1.5660    5.6310 c3        1 28U     -0.037200
     14 C11        -2.5690   -1.4770    6.0290 c3        1 28U     -0.043200
     15 C12        -2.7370   -1.2770    7.4870 c2        1 28U     -0.177200
     16 C14        -4.0530   -0.8460    9.5330 c3        1 28U     -0.057900
     17 H1          2.1680   -0.9450   -0.2070 hc        1 28U      0.044700
     18 H2          1.3790   -1.0720   -1.8370 hc        1 28U      0.044700
     19 H3          0.7770   -2.0880   -0.4610 hc        1 28U      0.044700
     20 H4         -0.6110    0.9900    1.4030 hc        1 28U      0.051200
     21 H5          1.1370    0.5190    1.5480 hc        1 28U      0.051200
     22 H6         -1.2340   -1.4740    1.4300 hc        1 28U      0.056700
     23 H7          0.4990   -1.8860    1.7320 hc        1 28U      0.056700
     24 H8         -0.1910    0.1160    3.7300 ha        1 28U      0.121000
     25 H11        -1.6120   -3.8430    4.5330 hc        1 28U      0.040700
     26 H12        -0.4960   -3.6350    3.1170 hc        1 28U      0.040700
     27 H13        -2.2170   -3.0900    2.9980 hc        1 28U      0.040700
     28 H15        -5.2990   -1.8350    6.6250 hc        1 28U      0.040200
     29 H16        -5.1600   -0.0300    6.6360 hc        1 28U      0.040200
     30 H17        -6.0720   -0.8750    7.9570 hc        1 28U      0.040200
     31 H18        -1.0630   -0.4450   -1.7290 ho        1 28U      0.399000
     32 H19         1.7300    1.5310   -0.7870 ha        1 28U      0.125000
     33 H20        -1.1960    1.9400   -1.7850 ha        1 28U      0.117500
     34 H21         0.2400    3.0830   -2.0520 ha        1 28U      0.117500
     35 H22        -0.5880   -0.6130    5.9200 hc        1 28U      0.044700
     36 H23        -0.6140   -2.3980    6.2030 hc        1 28U      0.044700
     37 H24        -3.1000   -2.4200    5.7180 hc        1 28U      0.050700
     38 H25        -3.0590   -0.6320    5.4720 hc        1 28U      0.050700
     39 H26        -1.8190   -1.3390    8.0950 ha        1 28U      0.121000
     40 H28        -3.0620   -0.8990   10.0460 hc        1 28U      0.040200
     41 H29        -4.5110    0.1510    9.7510 hc        1 28U      0.040200
     42 H30        -4.7170   -1.6360    9.9650 hc        1 28U      0.040200
@<TRIPOS>BOND
     1    1   10 1   
     2    1   17 1   
     3    1   18 1   
     4    1   19 1   
     5    2    3 1   
     6    2   10 1   
     7    2   20 1   
     8    2   21 1   
     9    3    4 1   
    10    3   22 1   
    11    3   23 1   
    12    4    5 2   
    13    4   24 1   
    14    5    6 1   
    15    5   13 1   
    16    6   25 1   
    17    6   26 1   
    18    6   27 1   
    19    7    8 1   
    20    7   15 2   
    21    7   16 1   
    22    8   28 1   
    23    8   29 1   
    24    8   30 1   
    25    9   10 1   
    26    9   31 1   
    27   10   11 1   
    28   11   12 2   
    29   11   32 1   
    30   12   33 1   
    31   12   34 1   
    32   13   14 1   
    33   13   35 1   
    34   13   36 1   
    35   14   15 1   
    36   14   37 1   
    37   14   38 1   
    38   15   39 1   
    39   16   40 1   
    40   16   41 1   
    41   16   42 1   
@<TRIPOS>SUBSTRUCTURE
     1 28U         1 TEMP              0 ****  ****    0 ROOT
