@<TRIPOS>MOLECULE
28V
   59    63     1     0     0
SMALL
bcc


@<TRIPOS>ATOM
      1 S1           0.0000     0.0000     0.0000 s6         1 28V       2.304000
      2 O2           1.4210     0.0000     0.0000 o          1 28V      -0.864500
      3 O3          -0.7330     0.0000     1.2170 o          1 28V      -0.864500
      4 N4          -0.4090     1.4340    -0.7230 n7         1 28V      -0.473000
      5 C5          -1.7520     1.7700    -0.8950 c2         1 28V      -0.095000
      6 C6          -2.5160     2.1570     0.2010 c2         1 28V      -0.057500
      7 C7          -3.8410     2.4910     0.0360 c2         1 28V      -0.175000
      8 C8          -4.4190     2.4400    -1.2360 c3         1 28V       0.062000
      9 C9          -3.6490     2.0510    -2.3360 c2         1 28V      -0.175000
     10 C10         -2.3210     1.7240    -2.1620 c2         1 28V      -0.057500
     11 C11         -5.8370     2.7960    -1.4180 c2         1 28V      -0.063000
     12 C12         -6.3910     2.7470    -2.6400 c2         1 28V      -0.039000
     13 C13         -7.8090     3.1030    -2.8220 c3         1 28V      -0.005000
     14 C14         -8.3700     3.1240    -4.1080 c2         1 28V       0.016000
     15 C15         -9.7050     3.4590    -4.2750 c2         1 28V      -0.045000
     16 C16        -10.4860     3.7710    -3.1810 c2         1 28V      -0.107000
     17 C17         -9.9370     3.7530    -1.8980 c2         1 28V       0.014000
     18 C18         -8.6000     3.4130    -1.7160 c2         1 28V      -0.146000
     19 C19        -10.7800     4.0910    -0.7270 c2         1 28V      -0.119000
     20 C20        -11.3280     5.3930    -0.5630 c2         1 28V       0.184000
     21 O21        -11.1130     6.2640    -1.3890 o          1 28V      -0.401000
     22 N22        -12.0880     5.6520     0.5180 ns         1 28V       0.244000
     23 N24        -12.3340     4.7570     1.4050 n2         1 28V      -0.102000
     24 C25        -11.8710     3.5400     1.3300 c2         1 28V      -0.151000
     25 C26        -11.0710     3.1450     0.2480 c2         1 28V      -0.067000
     26 C27        -10.3060     3.4830    -5.6570 c3         1 28V      -0.011000
     27 C28        -11.7600     3.9500    -5.5730 c3         1 28V      -0.122333
     28 C29         -9.5110     4.4440    -6.5430 c3         1 28V      -0.122333
     29 C30        -10.2550     2.0760    -6.2580 c3         1 28V      -0.122333
     30 O31         -7.6070     2.8180    -5.1880 os         1 28V      -0.205000
     31 C32         -7.3230     1.4360    -5.4100 c3         1 28V       0.049000
     32 C33         -0.6360    -1.2720    -1.1270 c3         1 28V      -0.564000
     33 H1           0.3070     2.0740    -1.0040 hn         1 28V       0.144000
     34 H2          -2.0670     2.1960     1.1860 ha         1 28V       0.119000
     35 H3          -4.4350     2.7920     0.8900 ha         1 28V       0.121500
     36 H4          -4.0920     2.0130    -3.3230 ha         1 28V       0.121500
     37 H5          -1.7230     1.4230    -3.0140 ha         1 28V       0.119000
     38 H6          -5.0070     3.4480    -1.6600 DU         1 28V       0.068000
     39 H7          -6.7680     3.7620    -2.6710 DU         1 28V       0.093000
     40 H8         -11.5280     4.0340    -3.3190 ha         1 28V       0.132000
     41 H9          -8.1730     3.3990    -0.7210 ha         1 28V       0.126000
     42 H10        -12.4740     6.5680     0.6330 hn         1 28V       0.109000
     43 H11        -12.1120     2.8250     2.1070 h4         1 28V       0.138000
     44 H12        -10.6830     2.1360     0.1790 ha         1 28V       0.125000
     45 H13        -12.3260     3.2610    -4.9580 hc         1 28V       0.050222
     46 H14        -11.7970     4.9390    -5.1340 hc         1 28V       0.050222
     47 H15        -12.1880     3.9800    -6.5680 hc         1 28V       0.050222
     48 H16         -8.6410     3.9340    -6.9390 hc         1 28V       0.050222
     49 H17        -10.1360     4.7820    -7.3610 hc         1 28V       0.050222
     50 H18         -9.1930     5.2960    -5.9550 hc         1 28V       0.050222
     51 H19        -11.1620     1.8900    -6.8200 hc         1 28V       0.050222
     52 H20         -9.3990     1.9960    -6.9180 hc         1 28V       0.050222
     53 H21        -10.1660     1.3460    -5.4630 hc         1 28V       0.050222
     54 H22         -6.2750     1.2460    -5.2130 h1         1 28V       0.035000
     55 H23         -7.5480     1.1820    -6.4390 h1         1 28V       0.035000
     56 H24         -7.9310     0.8310    -4.7480 h1         1 28V       0.035000
     57 H25         -0.4360    -0.9800    -2.1510 h1         1 28V       0.102667
     58 H26         -0.1480    -2.2160    -0.9180 h1         1 28V       0.102667
     59 H27         -1.7050    -1.3780    -0.9850 h1         1 28V       0.102667
@<TRIPOS>BOND
     1     1     2 1   
     2     1     3 1   
     3     1     4 1   
     4     1    32 1   
     5     4     5 1   
     6     4    33 1   
     7     5     6 1   
     8     5    10 1   
     9     6     7 1   
    10     6    34 1   
    11     7     8 1   
    12     7    35 1   
    13     8     9 1   
    14     8    11 1   
    15     8    38 1   
    16     9    10 1   
    17     9    36 1   
    18    10    37 1   
    19    11    12 1   
    20    11    38 1   
    21    12    13 1   
    22    12    39 1   
    23    13    14 1   
    24    13    18 1   
    25    13    39 1   
    26    14    15 1   
    27    14    30 1   
    28    15    16 1   
    29    15    26 1   
    30    16    17 1   
    31    16    40 1   
    32    17    18 1   
    33    17    19 1   
    34    18    41 1   
    35    19    20 1   
    36    19    25 1   
    37    20    21 1   
    38    20    22 1   
    39    22    23 1   
    40    22    42 1   
    41    23    24 1   
    42    24    25 1   
    43    24    43 1   
    44    25    44 1   
    45    26    27 1   
    46    26    28 1   
    47    26    29 1   
    48    27    45 1   
    49    27    46 1   
    50    27    47 1   
    51    28    48 1   
    52    28    49 1   
    53    28    50 1   
    54    29    51 1   
    55    29    52 1   
    56    29    53 1   
    57    30    31 1   
    58    31    54 1   
    59    31    55 1   
    60    31    56 1   
    61    32    57 1   
    62    32    58 1   
    63    32    59 1   
@<TRIPOS>SUBSTRUCTURE
     1 28V         1 TEMP              0 ****  ****    0 ROOT
