@<TRIPOS>MOLECULE
molecule
   59    61     1     0     0
SMALL
bcc


@<TRIPOS>ATOM
      1 S1           0.0000     0.0000     0.0000 s6         1 28V       1.324900
      2 O2           1.4210     0.0000     0.0000 o          1 28V      -0.626300
      3 O3          -0.7330     0.0000     1.2170 o          1 28V      -0.626300
      4 N4          -0.4090     1.4340    -0.7230 nu         1 28V      -0.781500
      5 C5          -1.7520     1.7700    -0.8950 ca         1 28V       0.111600
      6 C6          -2.5160     2.1570     0.2010 ca         1 28V      -0.120000
      7 C7          -3.8410     2.4910     0.0360 ca         1 28V      -0.118000
      8 C8          -4.4190     2.4400    -1.2360 ca         1 28V      -0.046800
      9 C9          -3.6490     2.0510    -2.3360 ca         1 28V      -0.118000
     10 C10         -2.3210     1.7240    -2.1620 ca         1 28V      -0.120000
     11 C11         -5.8370     2.7960    -1.4180 ce         1 28V      -0.119200
     12 C12         -6.3910     2.7470    -2.6400 cf         1 28V      -0.096200
     13 C13         -7.8090     3.1030    -2.8220 ca         1 28V      -0.086800
     14 C14         -8.3700     3.1240    -4.1080 ca         1 28V       0.132100
     15 C15         -9.7050     3.4590    -4.2750 ca         1 28V      -0.081300
     16 C16        -10.4860     3.7710    -3.1810 ca         1 28V      -0.081000
     17 C17         -9.9370     3.7530    -1.8980 ca         1 28V      -0.045800
     18 C18         -8.6000     3.4130    -1.7160 ca         1 28V      -0.097000
     19 C19        -10.7800     4.0910    -0.7270 cc         1 28V      -0.119400
     20 C20        -11.3280     5.3930    -0.5630 c          1 28V       0.644700
     21 O21        -11.1130     6.2640    -1.3890 o          1 28V      -0.626500
     22 N22        -12.0880     5.6520     0.5180 ns         1 28V      -0.225900
     23 N24        -12.3340     4.7570     1.4050 nc         1 28V      -0.446300
     24 C25        -11.8710     3.5400     1.3300 cd         1 28V       0.344500
     25 C26        -11.0710     3.1450     0.2480 cd         1 28V      -0.186600
     26 C27        -10.3060     3.4830    -5.6570 c3         1 28V      -0.014700
     27 C28        -11.7600     3.9500    -5.5730 c3         1 28V      -0.082767
     28 C29         -9.5110     4.4440    -6.5430 c3         1 28V      -0.082767
     29 C30        -10.2550     2.0760    -6.2580 c3         1 28V      -0.082767
     30 O31         -7.6070     2.8180    -5.1880 os         1 28V      -0.347900
     31 C32         -7.3230     1.4360    -5.4100 c3         1 28V       0.132700
     32 C33         -0.6360    -1.2720    -1.1270 c3         1 28V      -0.244300
     33 H1           0.3080     2.0660    -1.0200 hn         1 28V       0.466800
     34 H2          -2.0670     2.1960     1.1860 ha         1 28V       0.146500
     35 H3          -4.4350     2.7920     0.8900 ha         1 28V       0.138500
     36 H4          -4.0920     2.0130    -3.3230 ha         1 28V       0.138500
     37 H5          -1.7230     1.4230    -3.0140 ha         1 28V       0.146500
     38 H6          -6.4340     3.0980    -0.5650 ha         1 28V       0.135000
     39 H7          -5.7940     2.4450    -3.4930 ha         1 28V       0.141000
     40 H8         -11.5280     4.0340    -3.3190 ha         1 28V       0.151000
     41 H9          -8.1730     3.3990    -0.7210 ha         1 28V       0.138000
     42 H10        -12.4740     6.5680     0.6330 hn         1 28V       0.372500
     43 H11        -12.1120     2.8250     2.1070 h4         1 28V       0.053800
     44 H12        -10.6830     2.1360     0.1790 ha         1 28V       0.152000
     45 H13        -12.3260     3.2590    -4.9600 hc         1 28V       0.039033
     46 H14        -11.7970     4.9390    -5.1320 hc         1 28V       0.039033
     47 H15        -12.1870     3.9820    -6.5680 hc         1 28V       0.039033
     48 H16         -8.6650     3.9220    -6.9730 hc         1 28V       0.039033
     49 H17        -10.1480     4.8150    -7.3360 hc         1 28V       0.039033
     50 H18         -9.1570     5.2750    -5.9450 hc         1 28V       0.039033
     51 H19        -11.1500     1.9000    -6.8420 hc         1 28V       0.039033
     52 H20        -10.1930     1.3450    -5.4610 hc         1 28V       0.039033
     53 H21         -9.3840     1.9880    -6.8970 hc         1 28V       0.039033
     54 H22         -7.5810     1.1730    -6.4290 h1         1 28V       0.035700
     55 H23         -7.9040     0.8320    -4.7240 h1         1 28V       0.035700
     56 H24         -6.2680     1.2530    -5.2470 h1         1 28V       0.035700
     57 H25         -1.7080    -1.3650    -0.9980 h1         1 28V       0.098700
     58 H26         -0.1620    -2.2200    -0.9060 h1         1 28V       0.098700
     59 H27         -0.4190    -0.9890    -2.1500 h1         1 28V       0.098700
@<TRIPOS>BOND
     1     2     1 2   
     2     1    32 1   
     3     1     3 2   
     4     1     4 1   
     5     4     5 1   
     6     5     6 ar  
     7     5    10 ar  
     8     6     7 ar  
     9    10     9 ar  
    10     7     8 ar  
    11     9     8 ar  
    12     8    11 1   
    13    11    12 2   
    14    12    13 1   
    15    31    30 1   
    16    13    18 ar  
    17    13    14 ar  
    18    30    14 1   
    19    18    17 ar  
    20    14    15 ar  
    21    21    20 2   
    22    17    16 ar  
    23    17    19 1   
    24    15    16 ar  
    25    15    26 1   
    26    20    19 1   
    27    20    22 1   
    28    29    26 1   
    29    28    26 1   
    30    19    25 2   
    31    26    27 1   
    32    22    23 1   
    33    25    24 1   
    34    23    24 2   
    35     4    33 1   
    36     6    34 1   
    37     7    35 1   
    38     9    36 1   
    39    10    37 1   
    40    11    38 1   
    41    12    39 1   
    42    16    40 1   
    43    18    41 1   
    44    22    42 1   
    45    24    43 1   
    46    25    44 1   
    47    27    45 1   
    48    27    46 1   
    49    27    47 1   
    50    28    48 1   
    51    28    49 1   
    52    28    50 1   
    53    29    51 1   
    54    29    52 1   
    55    29    53 1   
    56    31    54 1   
    57    31    55 1   
    58    31    56 1   
    59    32    57 1   
    60    32    58 1   
    61    32    59 1   
@<TRIPOS>SUBSTRUCTURE
     1 28V         1 TEMP              0 ****  ****    0 ROOT
