@<TRIPOS>MOLECULE
28W
   63    65     1     0     0
SMALL
bcc


@<TRIPOS>ATOM
      1 CAL          0.0000     0.0000     0.0000 ca         1 28W      -0.084500
      2 CAJ          1.3830     0.0000     0.0000 ca         1 28W      -0.103500
      3 CAI          2.0740     0.0000     1.1960 ca         1 28W      -0.095000
      4 CAK          1.3840     0.0010     2.3940 ca         1 28W      -0.103500
      5 CAM          0.0020     0.0040     2.3950 ca         1 28W      -0.084500
      6 CBB         -0.6900     0.0020     1.1980 ca         1 28W      -0.123300
      7 CAQ         -2.1970     0.0080     1.1990 c3         1 28W       0.113300
      8 NAU         -2.6920    -1.3710     1.1970 ns         1 28W      -0.206900
      9 CAZ         -4.0180    -1.6110     1.1970 c          1 28W       0.563100
     10 OAE         -4.8020    -0.6850     1.2000 o          1 28W      -0.595100
     11 CBI         -4.5270    -3.0290     1.1950 c3         1 28W       0.142700
     12 N           -5.9450    -3.0410     0.8110 n7         1 28W      -0.523200
     13 CA          -6.3330    -4.3510     0.2720 c3         1 28W       0.034500
     14 CB          -7.8370    -4.5560     0.4680 c3         1 28W      -0.010400
     15 CG          -8.2180    -5.9750     0.0410 c3         1 28W      -0.074700
     16 CD2         -7.5630    -6.9850     0.9870 c3         1 28W       0.006400
     17 CD1         -9.7390    -6.1340     0.1000 c3         1 28W       0.006400
     18 C           -6.0060    -4.4080    -1.1970 c          1 28W       0.541100
     19 O           -6.0010    -3.3910    -1.8570 o          1 28W      -0.611100
     20 NAT         -5.7180    -5.5910    -1.7780 ns         1 28W      -0.069400
     21 OAG         -5.4100    -5.6440    -3.1590 oh         1 28W      -0.440100
     22 CBD         -4.3760    -3.6190     2.5740 cc         1 28W      -0.080400
     23 CBF         -3.4190    -4.5850     2.9690 ca         1 28W      -0.114800
     24 CAO         -2.3910    -5.2530     2.2910 ca         1 28W      -0.039000
     25 CAN         -1.6120    -6.1540     2.9570 ca         1 28W      -0.127000
     26 CBA         -1.8270    -6.4140     4.3050 ca         1 28W      -0.012600
     27 ClH         -0.8210    -7.5650     5.1300 cl         1 28W      -0.028400
     28 CAP         -2.8320    -5.7690     4.9930 ca         1 28W      -0.101000
     29 CBE         -3.6400    -4.8470     4.3350 ca         1 28W      -0.214200
     30 NAW         -4.6940    -4.0620     4.7390 na         1 28W       0.366600
     31 CBC         -5.1310    -3.3150     3.6620 cd         1 28W      -0.280300
     32 CAX         -6.2420    -2.3530     3.6870 c          1 28W       0.588300
     33 OAC         -6.5480    -1.7510     2.6750 o          1 28W      -0.512100
     34 NAS         -6.9230    -2.1390     4.8310 ns         1 28W      -0.082400
     35 OAF         -8.0520    -1.2840     4.8330 oh         1 28W      -0.427100
     36 H1          -0.5420    -0.0010    -0.9380 ha         1 28W       0.108500
     37 H2           1.9240    -0.0010    -0.9380 ha         1 28W       0.103500
     38 H3           3.1570    -0.0010     1.1960 ha         1 28W       0.102000
     39 H4           1.9270     0.0020     3.3320 ha         1 28W       0.103500
     40 H5          -0.5400     0.0050     3.3330 ha         1 28W       0.108500
     41 H6          -2.5560     0.5220     0.3160 h1         1 28W       0.029700
     42 H7          -2.5550     0.5190     2.0850 h1         1 28W       0.029700
     43 H8          -2.0460    -2.1350     1.1600 hn         1 28W       0.175500
     44 H9          -3.9560    -3.6170     0.4870 h1         1 28W       0.012700
     45 H10         -6.1090    -2.3340     0.1210 hn         1 28W       0.314800
     46 H12         -5.7920    -5.1300     0.7940 h1         1 28W       0.040700
     47 H13         -8.3810    -3.8390    -0.1360 hc         1 28W       0.038200
     48 H14         -8.0890    -4.4130     1.5120 hc         1 28W       0.038200
     49 H15         -7.8750    -6.1530    -0.9710 hc         1 28W       0.024700
     50 H16         -8.0590    -7.9430     0.8920 hc         1 28W       0.003200
     51 H17         -7.6500    -6.6330     2.0080 hc         1 28W       0.003200
     52 H18         -6.5160    -7.0930     0.7310 hc         1 28W       0.003200
     53 H19        -10.2050    -5.3850    -0.5280 hc         1 28W       0.003200
     54 H20        -10.0120    -7.1210    -0.2530 hc         1 28W       0.003200
     55 H21        -10.0760    -6.0100     1.1220 hc         1 28W       0.003200
     56 H22         -5.6610    -6.4210    -1.2210 hn         1 28W       0.163500
     57 H23         -5.3120    -6.5430    -3.4240 ho         1 28W       0.391000
     58 H24         -2.2170    -5.0560     1.2400 ha         1 28W       0.104000
     59 H25         -0.8190    -6.6710     2.4300 ha         1 28W       0.116000
     60 H26         -2.9920    -5.9790     6.0440 ha         1 28W       0.113000
     61 H27         -5.0780    -4.0320     5.6630 hn         1 28W       0.115700
     62 H28         -6.6070    -2.5520     5.6860 hn         1 28W       0.138500
     63 H29         -8.3270    -1.1280     5.7210 ho         1 28W       0.388000
@<TRIPOS>BOND
     1     1     2 ar  
     2     1     6 ar  
     3     1    36 1   
     4     2     3 ar  
     5     2    37 1   
     6     3     4 ar  
     7     3    38 1   
     8     4     5 ar  
     9     4    39 1   
    10     5     6 ar  
    11     5    40 1   
    12     6     7 1   
    13     7     8 1   
    14     7    41 1   
    15     7    42 1   
    16     8     9 1   
    17     8    43 1   
    18     9    10 2   
    19     9    11 1   
    20    11    12 1   
    21    11    22 1   
    22    11    44 1   
    23    12    13 1   
    24    12    45 1   
    25    13    14 1   
    26    13    18 1   
    27    13    46 1   
    28    14    15 1   
    29    14    47 1   
    30    14    48 1   
    31    15    16 1   
    32    15    17 1   
    33    15    49 1   
    34    16    50 1   
    35    16    51 1   
    36    16    52 1   
    37    17    53 1   
    38    17    54 1   
    39    17    55 1   
    40    18    19 2   
    41    18    20 1   
    42    20    21 1   
    43    20    56 1   
    44    21    57 1   
    45    22    23 1   
    46    22    31 2   
    47    23    24 ar  
    48    23    29 ar  
    49    24    25 ar  
    50    24    58 1   
    51    25    26 ar  
    52    25    59 1   
    53    26    27 1   
    54    26    28 ar  
    55    28    29 ar  
    56    28    60 1   
    57    29    30 1   
    58    30    31 1   
    59    30    61 1   
    60    31    32 1   
    61    32    33 2   
    62    32    34 1   
    63    34    35 1   
    64    34    62 1   
    65    35    63 1   
@<TRIPOS>SUBSTRUCTURE
     1 28W         1 TEMP              0 ****  ****    0 ROOT
