@<TRIPOS>MOLECULE
molecule
   63    65     1     0     0
SMALL
bcc


@<TRIPOS>ATOM
      1 CAL          0.0000     0.0000     0.0000 ca         1 28W      -0.112000
      2 CAJ          1.3830     0.0000     0.0000 ca         1 28W      -0.131500
      3 CAI          2.0740     0.0000     1.1960 ca         1 28W      -0.121000
      4 CAK          1.3840     0.0010     2.3940 ca         1 28W      -0.131500
      5 CAM          0.0020     0.0040     2.3950 ca         1 28W      -0.112000
      6 CBB         -0.6900     0.0020     1.1980 ca         1 28W      -0.117300
      7 CAQ         -2.1970     0.0080     1.1990 c3         1 28W       0.163300
      8 NAU         -2.6920    -1.3710     1.1970 ns         1 28W      -0.586900
      9 CAZ         -4.0180    -1.6110     1.1970 c          1 28W       0.653100
     10 OAE         -4.8020    -0.6850     1.2000 o          1 28W      -0.559100
     11 CBI         -4.5270    -3.0290     1.1950 c3         1 28W       0.167700
     12 N           -5.9450    -3.0410     0.8110 n7         1 28W      -0.750200
     13 CA          -6.3330    -4.3510     0.2720 c3         1 28W       0.096500
     14 CB          -7.8370    -4.5560     0.4680 c3         1 28W      -0.057400
     15 CG          -8.2180    -5.9750     0.0410 c3         1 28W      -0.093700
     16 CD2         -7.5630    -6.9850     0.9870 c3         1 28W      -0.087100
     17 CD1         -9.7390    -6.1340     0.1000 c3         1 28W      -0.087100
     18 C           -6.0060    -4.4080    -1.1970 c          1 28W       0.633100
     19 O           -6.0010    -3.3910    -1.8570 o          1 28W      -0.574100
     20 NAT         -5.7180    -5.5910    -1.7780 ns         1 28W      -0.474400
     21 OAG         -5.4100    -5.6440    -3.1590 oh         1 28W      -0.368100
     22 CBD         -4.3760    -3.6190     2.5740 cc         1 28W      -0.080400
     23 CBF         -3.4190    -4.5850     2.9690 ca         1 28W      -0.112800
     24 CAO         -2.3910    -5.2530     2.2910 ca         1 28W      -0.075000
     25 CAN         -1.6120    -6.1540     2.9570 ca         1 28W      -0.147000
     26 CBA         -1.8270    -6.4140     4.3050 ca         1 28W       0.054400
     27 ClH         -0.8210    -7.5650     5.1300 cl         1 28W      -0.103400
     28 CAP         -2.8320    -5.7690     4.9930 ca         1 28W      -0.138000
     29 CBE         -3.6400    -4.8470     4.3350 ca         1 28W      -0.024200
     30 NAW         -4.6940    -4.0620     4.7390 na         1 28W      -0.175400
     31 CBC         -5.1310    -3.3150     3.6620 cd         1 28W      -0.075300
     32 CAX         -6.2420    -2.3530     3.6870 c          1 28W       0.680300
     33 OAC         -6.5480    -1.7510     2.6750 o          1 28W      -0.469100
     34 NAS         -6.9230    -2.1390     4.8310 ns         1 28W      -0.484400
     35 OAF         -8.0520    -1.2840     4.8330 oh         1 28W      -0.352100
     36 H1          -0.5420    -0.0010    -0.9380 ha         1 28W       0.135500
     37 H2           1.9240    -0.0010    -0.9380 ha         1 28W       0.131500
     38 H3           3.1570    -0.0010     1.1960 ha         1 28W       0.130000
     39 H4           1.9270     0.0020     3.3320 ha         1 28W       0.131500
     40 H5          -0.5400     0.0050     3.3330 ha         1 28W       0.135500
     41 H6          -2.5560     0.5220     0.3160 h1         1 28W       0.060200
     42 H7          -2.5550     0.5190     2.0850 h1         1 28W       0.060200
     43 H8          -2.0460    -2.1350     1.1600 hn         1 28W       0.314500
     44 H9          -3.9560    -3.6170     0.4870 h1         1 28W       0.040700
     45 H10         -6.1090    -2.3340     0.1210 hn         1 28W       0.413800
     46 H12         -5.7920    -5.1300     0.7940 h1         1 28W       0.063700
     47 H13         -8.3810    -3.8390    -0.1360 hc         1 28W       0.069200
     48 H14         -8.0890    -4.4130     1.5120 hc         1 28W       0.069200
     49 H15         -7.8750    -6.1530    -0.9710 hc         1 28W       0.052700
     50 H16         -8.0590    -7.9430     0.8920 hc         1 28W       0.034367
     51 H17         -7.6500    -6.6330     2.0080 hc         1 28W       0.034367
     52 H18         -6.5160    -7.0930     0.7310 hc         1 28W       0.034367
     53 H19        -10.2050    -5.3850    -0.5280 hc         1 28W       0.034367
     54 H20        -10.0120    -7.1210    -0.2530 hc         1 28W       0.034367
     55 H21        -10.0760    -6.0100     1.1220 hc         1 28W       0.034367
     56 H22         -5.6610    -6.4210    -1.2210 hn         1 28W       0.320500
     57 H23         -5.3120    -6.5430    -3.4240 ho         1 28W       0.396000
     58 H24         -2.2170    -5.0560     1.2400 ha         1 28W       0.137000
     59 H25         -0.8190    -6.6710     2.4300 ha         1 28W       0.146000
     60 H26         -2.9920    -5.9790     6.0440 ha         1 28W       0.143000
     61 H27         -5.0780    -4.0320     5.6630 hn         1 28W       0.298700
     62 H28         -6.6070    -2.5520     5.6860 hn         1 28W       0.303500
     63 H29         -8.3270    -1.1280     5.7210 ho         1 28W       0.396000
@<TRIPOS>BOND
     1    27    26 1   
     2    28    26 ar  
     3    28    29 ar  
     4    33    32 2   
     5    30    29 1   
     6    30    31 1   
     7    26    25 ar  
     8    29    23 ar  
     9    17    15 1   
    10    32    31 1   
    11    32    34 1   
    12    31    22 2   
    13    25    24 ar  
    14    23    22 1   
    15    23    24 ar  
    16    35    34 1   
    17    22    11 1   
    18    16    15 1   
    19    15    14 1   
    20    19    18 2   
    21    14    13 1   
    22    13    18 1   
    23    13    12 1   
    24    11    12 1   
    25    11     9 1   
    26    18    20 1   
    27     2     3 ar  
    28     2     1 ar  
    29     3     4 ar  
    30     1     6 ar  
    31     8     9 1   
    32     8     7 1   
    33     9    10 2   
    34    20    21 1   
    35     4     5 ar  
    36     6     5 ar  
    37     6     7 1   
    38     1    36 1   
    39     2    37 1   
    40     3    38 1   
    41     4    39 1   
    42     5    40 1   
    43     7    41 1   
    44     7    42 1   
    45     8    43 1   
    46    11    44 1   
    47    12    45 1   
    48    13    46 1   
    49    14    47 1   
    50    14    48 1   
    51    15    49 1   
    52    16    50 1   
    53    16    51 1   
    54    16    52 1   
    55    17    53 1   
    56    17    54 1   
    57    17    55 1   
    58    20    56 1   
    59    21    57 1   
    60    24    58 1   
    61    25    59 1   
    62    28    60 1   
    63    30    61 1   
    64    34    62 1   
    65    35    63 1   
@<TRIPOS>SUBSTRUCTURE
     1 28W         1 TEMP              0 ****  ****    0 ROOT
