@<TRIPOS>MOLECULE
molecule
   18    20     1     0     0
SMALL
bcc


@<TRIPOS>ATOM
      1 C4           0.0000     0.0000     0.0000 cc         1 28Y       0.468800
      2 C5           1.3870     0.0000     0.0000 cd         1 28Y      -0.323200
      3 C6           2.0860     0.0000     1.2280 c          1 28Y       0.750100
      4 C8           0.6470    -0.0020    -2.0640 cc         1 28Y       0.459400
      5 N1           1.3970    -0.0000     2.3870 ns         1 28Y      -0.501400
      6 N2          -0.8560     0.0020     3.3730 nd         1 28Y      -0.711000
      7 N3          -0.6770     0.0000     1.2120 na         1 28Y      -0.195700
      8 O6           3.3040     0.0000     1.2390 o          1 28Y      -0.637500
      9 N7           1.7730    -0.0010    -1.3260 na         1 28Y      -0.245900
     10 N9          -0.3970    -0.0060    -1.2760 nd         1 28Y      -0.706000
     11 CAD         -2.0140     0.0010     1.5270 cc         1 28Y      -0.254600
     12 CAB         -2.1000     0.0020     2.8700 cd         1 28Y       0.342200
     13 C2           0.0150    -0.0000     2.3860 cc         1 28Y       0.530400
     14 H1           0.6120     0.0010    -3.1470 h5         1 28Y       0.081100
     15 H2           1.8920    -0.0000     3.2570 hn         1 28Y       0.372500
     16 H3           2.7120     0.0020    -1.6730 hn         1 28Y       0.327700
     17 H5          -2.8420     0.0010     0.8280 h4         1 28Y       0.192000
     18 H6          -3.0170     0.0030     3.4470 h4         1 28Y       0.052100
@<TRIPOS>BOND
     1     4    10 2
     2     4     9 1
     3    10     1 1
     4     9     2 1
     5     1     2 2
     6     1     7 1
     7    11     7 1
     8    11    12 2
     9     2     3 1
    10     7    13 1
    11    12     6 1
    12     3     8 2
    13     3     5 1
    14    13     6 2
    15    13     5 1
    16     4    14 1
    17     5    15 1
    18     9    16 1
    19    11    17 1
    20    12    18 1
@<TRIPOS>SUBSTRUCTURE
     1 28Y         1 TEMP              0 ****  ****    0 ROOT
