@<TRIPOS>MOLECULE
28Y
   18    20     1     0     0
SMALL
bcc


@<TRIPOS>ATOM
      1 C4           0.0000     0.0000     0.0000 cc         1 28Y       0.244800
      2 C5           1.3870     0.0000     0.0000 cd         1 28Y      -0.508200
      3 C6           2.0860     0.0000     1.2280 c          1 28Y       0.647100
      4 C8           0.6470    -0.0020    -2.0640 cd         1 28Y       0.239400
      5 N1           1.3970    -0.0000     2.3870 ns         1 28Y      -0.014400
      6 N2          -0.8560     0.0020     3.3730 nc         1 28Y      -0.637000
      7 N3          -0.6770     0.0000     1.2120 na         1 28Y       0.359300
      8 O6           3.3040     0.0000     1.2390 o          1 28Y      -0.695500
      9 N7           1.7730    -0.0010    -1.3260 na         1 28Y       0.350100
     10 N9          -0.3970    -0.0060    -1.2760 nc         1 28Y      -0.595000
     11 CAD         -2.0140     0.0010     1.5270 cd         1 28Y      -0.438600
     12 CAB         -2.1000     0.0020     2.8700 cc         1 28Y       0.357200
     13 C2           0.0150    -0.0000     2.3860 cd         1 28Y       0.153400
     14 H1           0.6120     0.0010    -3.1470 h5         1 28Y       0.032100
     15 H2           1.8920    -0.0000     3.2570 hn         1 28Y       0.193500
     16 H3           2.7120     0.0020    -1.6730 hn         1 28Y       0.136700
     17 H5          -2.8420     0.0010     0.8280 h4         1 28Y       0.167000
     18 H6          -3.0170     0.0030     3.4470 h4         1 28Y       0.007100
@<TRIPOS>BOND
     1     1     2 2   
     2     1     7 1   
     3     1    10 1   
     4     2     3 1   
     5     2     9 1   
     6     3     5 1   
     7     3     8 2   
     8     4     9 1   
     9     4    10 2   
    10     4    14 1   
    11     5    13 1   
    12     5    15 1   
    13     6    12 1   
    14     6    13 2   
    15     7    11 1   
    16     7    13 1   
    17     9    16 1   
    18    11    12 2   
    19    11    17 1   
    20    12    18 1   
@<TRIPOS>SUBSTRUCTURE
     1 28Y         1 TEMP              0 ****  ****    0 ROOT
