@<TRIPOS>MOLECULE
molecule
   65    67     1     0     0
SMALL
bcc


@<TRIPOS>ATOM
      1 O4           0.0000     0.0000     0.0000 o          1 28Z      -0.586500
      2 C4           1.2170     0.0000     0.0000 c          1 28Z       0.630000
      3 C4A          1.9810     0.0000     1.2600 ca         1 28Z       0.173500
      4 N3           1.9190    -0.0050    -1.1560 ns         1 28Z      -0.481400
      5 C8A          3.3920     0.0000     1.1810 ca         1 28Z       0.525000
      6 N5           1.3790    -0.0020     2.4410 nb         1 28Z      -0.558000
      7 C2           3.2820    -0.0050    -1.1370 cc         1 28Z       0.254800
      8 N8           4.1100    -0.0000     2.3050 nb         1 28Z      -0.673000
      9 N1           3.9820     0.0010    -0.0290 nd         1 28Z      -0.691700
     10 C6           2.1050    -0.0020     3.5420 ca         1 28Z       0.212300
     11 N2           3.9530    -0.0100    -2.3320 nz         1 28Z      -0.673600
     12 C7           3.4950    -0.0020     3.4710 ca         1 28Z       0.369900
     13 C9           1.4240    -0.0040     4.8860 c3         1 28Z       0.209500
     14 N10          1.0960     1.3720     5.2690 nu         1 28Z      -0.828600
     15 CBH          0.4600     1.6240     6.4790 ca         1 28Z       0.200600
     16 CAL          0.1390     0.5680     7.3280 ca         1 28Z      -0.224000
     17 CAK          0.1480     2.9320     6.8410 ca         1 28Z      -0.224000
     18 CAN         -0.4920     0.8140     8.5260 ca         1 28Z      -0.044000
     19 CAM         -0.4830     3.1850     8.0380 ca         1 28Z      -0.044000
     20 CBI         -0.8110     2.1250     8.8900 ca         1 28Z      -0.171600
     21 CBF         -1.4880     2.3930    10.1730 c          1 28Z       0.675700
     22 OAF         -1.7690     1.4720    10.9160 o          1 28Z      -0.630100
     23 NBA         -1.7950     3.6580    10.5220 ns         1 28Z      -0.538900
     24 CBO         -2.4670     3.9230    11.7970 c3         1 28Z       0.010700
     25 CBD         -3.9560     3.7640    11.6220 c          1 28Z       0.888600
     26 OAI         -4.7780     3.9590    12.6650 o          1 28Z      -0.814300
     27 CAS         -2.1570     5.3520    12.2500 c3         1 28Z      -0.062400
     28 CAQ         -0.6610     5.4800    12.5460 c3         1 28Z      -0.163400
     29 CBE         -0.3560     6.8860    12.9910 c          1 28Z       0.656100
     30 OAE         -1.2470     7.7060    13.0650 o          1 28Z      -0.603100
     31 OAD         -4.4080     3.4600    10.5450 o          1 28Z      -0.814300
     32 N            0.9070     7.2330    13.3100 ns         1 28Z      -0.540900
     33 CA           1.2040     8.6010    13.7430 c3         1 28Z       0.042700
     34 C            1.4210     9.4740    12.5340 c          1 28Z       0.886600
     35 O            1.3370     9.0030    11.4250 o          1 28Z      -0.720800
     36 CB           2.4670     8.6000    14.6050 c3         1 28Z      -0.069400
     37 CG           2.2060     7.8140    15.8920 c3         1 28Z      -0.162400
     38 CD           3.4510     7.8140    16.7410 c          1 28Z       0.890600
     39 OE1          3.4550     7.1810    17.9250 o          1 28Z      -0.785800
     40 OE2          4.4450     8.3820    16.3570 o          1 28Z      -0.785800
     41 OXT          1.7080    10.7770    12.6900 o          1 28Z      -0.720800
     42 H4           1.4350    -0.0110    -2.0320 hn         1 28Z       0.308500
     43 H2           3.7070    -0.8310    -2.8490 hn         1 28Z       0.427800
     44 H3           3.7030     0.8030    -2.8580 hn         1 28Z       0.427800
     45 H1           4.0790    -0.0020     4.3840 h4         1 28Z       0.039100
     46 H5           0.5150    -0.5900     4.8300 h1         1 28Z       0.051200
     47 H6           2.0870    -0.4360     5.6260 h1         1 28Z       0.051200
     48 H7           1.3000     2.1270     4.6440 hn         1 28Z       0.437800
     49 H10          0.3870    -0.4480     7.0450 ha         1 28Z       0.120000
     50 H8           0.4030     3.7520     6.1800 ha         1 28Z       0.120000
     51 H11         -0.7430    -0.0080     9.1860 ha         1 28Z       0.146500
     52 H9          -0.7270     4.2020     8.3180 ha         1 28Z       0.146500
     53 H12         -1.6050     4.4110     9.8910 hn         1 28Z       0.304500
     54 H13         -2.1140     3.2230    12.5440 h1         1 28Z       0.076700
     55 H15         -2.4300     6.0470    11.4650 hc         1 28Z       0.072700
     56 H16         -2.7230     5.5780    13.1450 hc         1 28Z       0.072700
     57 H17         -0.0950     5.2530    11.6510 hc         1 28Z       0.053700
     58 H18         -0.3880     4.7850    13.3320 hc         1 28Z       0.053700
     59 H19          1.6470     6.5660    13.2170 hn         1 28Z       0.314500
     60 H20          0.3720     8.9850    14.3210 h1         1 28Z       0.098700
     61 H22          2.7370     9.6190    14.8520 hc         1 28Z       0.069700
     62 H23          3.2780     8.1350    14.0570 hc         1 28Z       0.069700
     63 H24          1.9370     6.7940    15.6450 hc         1 28Z       0.046200
     64 H25          1.3950     8.2790    16.4400 hc         1 28Z       0.046200
     65 H231         4.9390    -0.0020    -2.1610 hn         1 28Z       0.427800
@<TRIPOS>BOND
     1    35    34 1
     2    39    38 1
     3    34    41 1
     4    34    33 1
     5    38    40 1
     6    38    37 1
     7    37    36 1
     8    36    33 1
     9    33    32 1
    10    16    15 ar
    11    16    18 ar
    12    14    15 1
    13    14    13 1
    14    15    17 ar
    15    18    20 ar
    16    13    10 1
    17    30    29 2
    18    32    29 1
    19    29    28 1
    20    17    19 ar
    21    20    19 ar
    22    20    21 1
    23    27    24 1
    24    27    28 1
    25    23    21 1
    26    23    24 1
    27    10     6 ar
    28    10    12 ar
    29    21    22 2
    30     6     3 ar
    31    24    25 1
    32    12     8 ar
    33     1     2 2
    34     3     2 1
    35     3     5 ar
    36     8     5 ar
    37    25    26 1
    38    25    31 1
    39     2     4 1
    40     5     9 1
    41     4     7 1
    42     9     7 2
    43     7    11 1
    44    12    45 1
    45    11    43 1
    46    11    44 1
    47     4    42 1
    48    13    46 1
    49    13    47 1
    50    14    48 1
    51    17    50 1
    52    19    52 1
    53    16    49 1
    54    18    51 1
    55    23    53 1
    56    24    54 1
    57    27    55 1
    58    27    56 1
    59    28    57 1
    60    28    58 1
    61    32    59 1
    62    33    60 1
    63    36    61 1
    64    36    62 1
    65    37    63 1
    66    37    64 1
    67    65    11 1
@<TRIPOS>SUBSTRUCTURE
     1 28Z         1 TEMP              0 ****  ****    0 ROOT
