@<TRIPOS>MOLECULE
28Z
   64    66     1     0     0
SMALL
bcc


@<TRIPOS>ATOM
      1 O4          1.5580    2.9130   -0.3990 o         1 28Z     -0.595500
      2 C4          1.9660    1.8800    0.1510 c         1 28Z      0.619000
      3 C4A         1.9760    1.5800    1.6020 ca        1 28Z      0.187500
      4 N3          2.4880    0.8730   -0.6860 n         1 28Z     -0.509400
      5 C8A         2.4660    0.3010    2.0390 ca        1 28Z      0.527000
      6 N5          1.5170    2.5280    2.4710 nb        1 28Z     -0.585000
      7 C2          2.9330   -0.3570   -0.1640 cc        1 28Z      0.633800
      8 N8          2.4730   -0.0090    3.3890 nb        1 28Z     -0.630000
      9 N1          2.9590   -0.6530    1.1370 nd        1 28Z     -0.713700
     10 C6          1.5340    2.2130    3.7720 ca        1 28Z      0.297300
     11 N2          3.3300   -1.3470   -1.1190 nh        1 28Z     -0.873800
     12 C7          2.0190    0.9270    4.2150 ca        1 28Z      0.359900
     13 C9          1.0110    3.2070    4.8010 c3        1 28Z      0.132500
     14 N10         1.8220    3.2150    5.9930 nh        1 28Z     -0.736600
     15 CBH         1.1890    2.8580    7.2140 ca        1 28Z      0.078600
     16 CAL         0.3400    1.7340    7.2980 ca        1 28Z     -0.172000
     17 CAK         1.4660    3.5960    8.3850 ca        1 28Z     -0.172000
     18 CAN        -0.2230    1.3690    8.5200 ca        1 28Z     -0.072500
     19 CAM         0.9110    3.2080    9.6010 ca        1 28Z     -0.072500
     20 CBI         0.0580    2.1020    9.6710 ca        1 28Z     -0.156600
     21 CBF        -0.5410    1.7630   11.0020 c         1 28Z      0.661700
     22 OAF         0.1320    1.1560   11.8680 o         1 28Z     -0.649100
     23 NBA        -1.8430    2.1450   11.1940 n         1 28Z     -0.511900
     24 CBO        -2.4210    2.3790   12.5010 c3        1 28Z     -0.033300
     25 CBD        -3.9390    1.9860   12.5320 c         1 28Z      0.918600
     26 OAI        -4.6500    2.1810   11.5070 o         1 28Z     -0.848800
     27 CAS        -2.3060    3.8490   12.9440 c3        1 28Z     -0.084400
     28 CAQ        -0.8810    4.2890   13.2210 c3        1 28Z     -0.158400
     29 CBE        -0.5820    5.7020   12.7200 c         1 28Z      0.640100
     30 OAE        -1.5070    6.5330   12.5620 o         1 28Z     -0.655100
     31 OAD        -4.3690    1.4870   13.6100 o         1 28Z     -0.848800
     32 N           0.7460    6.0280   12.5560 n         1 28Z     -0.512900
     33 CA          1.2060    7.2040   11.8360 c3        1 28Z     -0.030300
     34 C           1.8060    6.8260   10.4440 c         1 28Z      0.898600
     35 O           1.7300    7.6710    9.5080 o         1 28Z     -0.869300
     36 CB          2.2800    7.9950   12.6060 c3        1 28Z     -0.050400
     37 CG          1.7560    8.7000   13.8340 c3        1 28Z     -0.176400
     38 CD          2.8310    9.5190   14.5560 c         1 28Z      0.902600
     39 OE1         3.8530    8.9380   15.0330 o         1 28Z     -0.881800
     40 OE2         2.6500   10.7690   14.6980 o         1 28Z     -0.881800
     41 OXT         2.3440    5.6850   10.2850 o         1 28Z     -0.869300
     42 H4          2.4390    1.0150   -1.6710 hn        1 28Z      0.329500
     43 H2          4.0420   -1.0110   -1.7350 hn        1 28Z      0.396300
     44 H3          3.6010   -2.2070   -0.6810 hn        1 28Z      0.396300
     45 H1          2.0300    0.6810    5.2980 h4        1 28Z      0.079100
     46 H5         -0.0540    2.8990    5.0200 h1        1 28Z      0.070200
     47 H6          0.9760    4.2340    4.3340 h1        1 28Z      0.070200
     48 H7          2.3390    4.0690    6.0870 hn        1 28Z      0.405800
     49 H10         0.1060    1.1400    6.4040 ha        1 28Z      0.153000
     50 H8          2.1010    4.5070    8.3930 ha        1 28Z      0.153000
     51 H11        -0.8970    0.5020    8.5710 ha        1 28Z      0.165000
     52 H9          1.1500    3.8190   10.4960 ha        1 28Z      0.165000
     53 H12        -2.3340    2.5780   10.4440 hn        1 28Z      0.316500
     54 H13        -1.8790    1.7270   13.2450 h1        1 28Z      0.067700
     55 H15        -2.7710    4.5150   12.1700 hc        1 28Z      0.060700
     56 H16        -2.9210    3.9560   13.8760 hc        1 28Z      0.060700
     57 H17        -0.6940    4.2870   14.3280 hc        1 28Z      0.051200
     58 H18        -0.1560    3.5620   12.7670 hc        1 28Z      0.051200
     59 H19         1.3940    5.2710   12.5100 hn        1 28Z      0.299500
     60 H20         0.3190    7.8790   11.6600 h1        1 28Z      0.072700
     61 H22         2.6900    8.7540   11.8880 hc        1 28Z      0.044200
     62 H23         3.1240    7.3180   12.8990 hc        1 28Z      0.044200
     63 H24         0.9120    9.3800   13.5490 hc        1 28Z      0.022700
     64 H25         1.3560    7.9470   14.5620 hc        1 28Z      0.022700
@<TRIPOS>BOND
     1    1    2 2   
     2    2    3 1   
     3    2    4 1   
     4    3    5 ar  
     5    3    6 ar  
     6    4    7 1   
     7    4   42 1   
     8    5    8 ar  
     9    5    9 1   
    10    6   10 ar  
    11    7    9 2   
    12    7   11 1   
    13    8   12 ar  
    14   10   12 ar  
    15   10   13 1   
    16   11   43 1   
    17   11   44 1   
    18   12   45 1   
    19   13   14 1   
    20   13   46 1   
    21   13   47 1   
    22   14   15 1   
    23   14   48 1   
    24   15   16 ar  
    25   15   17 ar  
    26   16   18 ar  
    27   16   49 1   
    28   17   19 ar  
    29   17   50 1   
    30   18   20 ar  
    31   18   51 1   
    32   19   20 ar  
    33   19   52 1   
    34   20   21 1   
    35   21   22 2   
    36   21   23 1   
    37   23   24 1   
    38   23   53 1   
    39   24   25 1   
    40   24   27 1   
    41   24   54 1   
    42   25   26 1   
    43   25   31 1   
    44   27   28 1   
    45   27   55 1   
    46   27   56 1   
    47   28   29 1   
    48   28   57 1   
    49   28   58 1   
    50   29   30 2   
    51   29   32 1   
    52   32   33 1   
    53   32   59 1   
    54   33   34 1   
    55   33   36 1   
    56   33   60 1   
    57   34   35 1   
    58   34   41 1   
    59   36   37 1   
    60   36   61 1   
    61   36   62 1   
    62   37   38 1   
    63   37   63 1   
    64   37   64 1   
    65   38   39 1   
    66   38   40 1   
@<TRIPOS>SUBSTRUCTURE
     1 28Z         1 TEMP              0 ****  ****    0 ROOT
