@<TRIPOS>MOLECULE
molecule
   17    18     1     0     0
SMALL
bcc


@<TRIPOS>ATOM
      1 C4           0.0000     0.0000     0.0000 cc         1 290      -0.024000
      2 C5           1.3990     0.0000     0.0000 cd         1 290       0.148000
      3 C6           2.0720     0.0000     1.2330 cd         1 290       0.506300
      4 C8           0.7490    -0.0090    -2.0670 cc         1 290       0.414400
      5 N1           1.3750     0.0010     2.3510 nc         1 290      -0.669100
      6 N3          -0.6610     0.0020     1.1950 ns         1 290      -0.432100
      7 C2           0.0410     0.0020     2.3450 c          1 290       0.839900
      8 C61          3.5770    -0.0010     1.2760 c3         1 290      -0.131400
      9 N9          -0.3830    -0.0050    -1.3050 na         1 290      -0.319900
     10 N7           1.7980    -0.0010    -1.2970 nd         1 290      -0.638000
     11 H8           0.7720    -0.0180    -3.1500 h5         1 290       0.078100
     12 HN3         -1.6610     0.0030     1.2160 hn         1 290       0.332500
     13 H61          3.9520    -0.8860     0.7770 hc         1 290       0.067700
     14 H61A         3.9530     0.8830     0.7750 hc         1 290       0.067700
     15 H61B         3.9090     0.0000     2.3070 hc         1 290       0.067700
     16 HN9         -1.3240    -0.0100    -1.6450 hn         1 290       0.308700
     17 O2          -0.5590     0.0030     3.4070 o          1 290      -0.614500
@<TRIPOS>BOND
     1     1     2 2
     2     1     6 1
     3     1     9 1
     4     2     3 1
     5     2    10 1
     6     3     5 2
     7     3     8 1
     8     4     9 1
     9     4    10 2
    10     5     7 1
    11     6     7 1
    12    17     7 2
    13     4    11 1
    14     6    12 1
    15     8    13 1
    16     8    14 1
    17     8    15 1
    18     9    16 1
@<TRIPOS>SUBSTRUCTURE
     1 290         1 TEMP              0 ****  ****    0 ROOT
