@<TRIPOS>MOLECULE
molecule
   39    42     1     0     0
SMALL
bcc


@<TRIPOS>ATOM
      1 C1           0.0000     0.0000     0.0000 cx         1 292      -0.128400
      2 C2           1.5290     0.0000     0.0000 cx         1 292      -0.128400
      3 C3           0.7640     0.0000     1.3250 cx         1 292      -0.158000
      4 C4           0.7650     1.2750     2.1290 cc         1 292       0.390600
      5 C5           0.8550     1.3640     3.5200 cc         1 292      -0.342300
      6 C6           0.8180     2.6820     3.8560 cd         1 292       0.053300
      7 N7           0.7160     3.3930     2.7090 na         1 292      -0.072600
      8 N8           0.6850     2.4860     1.6420 nd         1 292      -0.518800
      9 N9           0.8800     3.2060     5.1470 ns         1 292      -0.464100
     10 C10          0.9810     2.3780     6.2060 c          1 292       0.662100
     11 C11          1.0540     2.9450     7.6000 c3         1 292      -0.106100
     12 C12          1.1690     1.8180     8.5930 ca         1 292      -0.071300
     13 C13          0.0400     1.2710     9.1210 ca         1 292      -0.093000
     14 C14          0.1450     0.2170    10.0450 ca         1 292      -0.033000
     15 C15          1.4270    -0.2540    10.4200 ca         1 292      -0.030000
     16 C16          2.5700     0.3400     9.8580 ca         1 292      -0.111000
     17 C17          2.4310     1.3550     8.9630 ca         1 292      -0.110000
     18 C18          1.5310    -1.3040    11.3480 ca         1 292      -0.116000
     19 C19         -0.9990    -0.3760    10.6070 ca         1 292      -0.113000
     20 C20         -0.8590    -1.3910    11.5030 ca         1 292      -0.126000
     21 C21          0.4020    -1.8540    11.8720 ca         1 292      -0.124000
     22 O22          1.0190     1.1780     6.0360 o          1 292      -0.559100
     23 H1C1        -0.4670     0.9390    -0.2700 hc         1 292       0.078950
     24 H1C2        -0.4670    -0.9390    -0.2700 hc         1 292       0.078950
     25 H2C1         1.9970     0.9390    -0.2700 hc         1 292       0.078950
     26 H2C2         1.9970    -0.9390    -0.2700 hc         1 292       0.078950
     27 H3           0.7640    -0.9490     1.8480 hc         1 292       0.094700
     28 H5           0.9340     0.5320     4.2100 ha         1 292       0.199000
     29 H7           0.6690     4.3900     2.6360 hn         1 292       0.320700
     30 H9           0.8260     4.1960     5.2880 hn         1 292       0.318500
     31 H111         0.1570     3.5170     7.8050 hc         1 292       0.067700
     32 H112         1.9210     3.5890     7.6830 hc         1 292       0.067700
     33 H13         -0.9250     1.7180     8.9170 ha         1 292       0.131000
     34 H16          3.5570    -0.0090    10.1360 ha         1 292       0.134000
     35 H17          3.3140     1.8110     8.5330 ha         1 292       0.128000
     36 H18          2.5050    -1.6740    11.6450 ha         1 292       0.133000
     37 H19         -1.9860    -0.0260    10.3290 ha         1 292       0.132000
     38 H20         -1.7420    -1.8470    11.9350 ha         1 292       0.128000
     39 H21          0.4850    -2.6630    12.5870 ha         1 292       0.128000
@<TRIPOS>BOND
     1     1     2 1   
     2     1     3 1   
     3     1    23 1   
     4     1    24 1   
     5     2     3 1   
     6     2    25 1   
     7     2    26 1   
     8     3     4 1   
     9     3    27 1   
    10     4     5 1   
    11     4     8 2   
    12     5     6 2   
    13     5    28 1   
    14     6     7 1   
    15     6     9 1   
    16     7     8 1   
    17     7    29 1   
    18     9    10 1   
    19     9    30 1   
    20    10    11 1   
    21    10    22 2   
    22    11    12 1   
    23    11    31 1   
    24    11    32 1   
    25    12    13 ar  
    26    12    17 ar  
    27    13    14 ar  
    28    13    33 1   
    29    14    15 ar  
    30    14    19 ar  
    31    15    16 ar  
    32    15    18 ar  
    33    16    17 ar  
    34    16    34 1   
    35    17    35 1   
    36    18    21 ar  
    37    18    36 1   
    38    19    20 ar  
    39    19    37 1   
    40    20    21 ar  
    41    20    38 1   
    42    21    39 1   
@<TRIPOS>SUBSTRUCTURE
     1 292         1 TEMP              0 ****  ****    0 ROOT
