@<TRIPOS>MOLECULE
molecule
   48    50     1     0     0
SMALL
bcc


@<TRIPOS>ATOM
      1 C10          0.0000     0.0000     0.0000 c3         1 294      -0.086900
      2 C14          3.8950    -1.3430    -0.7760 ca         1 294      -0.333500
      3 C15          4.5820    -1.8890     0.2920 ca         1 294       0.012000
      4 C16          5.9580    -1.7890     0.3530 ca         1 294      -0.201500
      5 C17          6.6510    -1.1400    -0.6590 ca         1 294       0.192100
      6 C18          5.9590    -0.5930    -1.7300 ca         1 294      -0.201500
      7 C19          4.5820    -0.6960    -1.7860 ca         1 294       0.012000
      8 C21          8.6460    -1.6390     0.4360 ca         1 294       0.121100
      9 C22          9.0720    -2.9550     0.3220 ca         1 294      -0.141500
     10 C23          9.7290    -3.5610     1.3750 ca         1 294      -0.071500
     11 C24          9.9600    -2.8580     2.5440 ca         1 294      -0.181300
     12 C25          9.5360    -1.5460     2.6600 ca         1 294      -0.071500
     13 C26          8.8790    -0.9360     1.6090 ca         1 294      -0.141500
     14 C27         10.6750    -3.5210     3.6920 c3         1 294       0.675200
     15 O1           2.4660     2.4520    -2.7210 oh         1 294      -0.357100
     16 N2           1.8940     1.3490    -2.0420 ns         1 294      -0.472400
     17 C3           2.0350     1.2330    -0.7060 c          1 294       0.680100
     18 O4           2.5680     2.1200    -0.0730 o          1 294      -0.558100
     19 C5           1.5320     0.0000     0.0000 c3         1 294      -0.248200
     20 C6           2.0310     0.0000     1.4480 c3         1 294      -0.086900
     21 C7           1.4500     1.2110     2.1810 c3         1 294       0.137900
     22 O8           0.0230     1.1650     2.1170 os         1 294      -0.415600
     23 C9          -0.5030     1.2110     0.7890 c3         1 294       0.137900
     24 S11          2.1400    -1.4800    -0.8550 sy         1 294       1.211300
     25 O12          1.8440    -1.4110    -2.2420 o          1 294      -0.618300
     26 O13          1.8450    -2.6470    -0.1000 o          1 294      -0.618300
     27 O20          8.0050    -1.0390    -0.6010 os         1 294      -0.244200
     28 F28         12.0530    -3.3110     3.5670 f          1 294      -0.220967
     29 F29         10.2270    -2.9750     4.9000 f          1 294      -0.220967
     30 F30         10.4110    -4.8940     3.6740 f          1 294      -0.220967
     31 H10         -0.3610    -0.9090     0.4650 hc         1 294       0.068200
     32 H10A        -0.3610     0.0590    -1.0200 hc         1 294       0.068200
     33 H15          4.0410    -2.3960     1.0820 ha         1 294       0.157500
     34 H16          6.4960    -2.2170     1.1910 ha         1 294       0.152500
     35 H18          6.4970    -0.0860    -2.5210 ha         1 294       0.152500
     36 H19          4.0410    -0.2690    -2.6220 ha         1 294       0.157500
     37 H22          8.8910    -3.5060    -0.5930 ha         1 294       0.156500
     38 H23         10.0620    -4.5880     1.2870 ha         1 294       0.155000
     39 H25          9.7180    -0.9980     3.5760 ha         1 294       0.155000
     40 H26          8.5470     0.0920     1.7010 ha         1 294       0.156500
     41 HO1          1.8740     2.7510    -3.3900 ho         1 294       0.402000
     42 HN2          1.3390     0.6850    -2.5460 hn         1 294       0.350500
     43 H6           1.7090    -0.9090     1.9410 hc         1 294       0.068200
     44 H6A          3.1130     0.0580     1.4560 hc         1 294       0.068200
     45 H7           1.7650     1.1890     3.2180 h1         1 294       0.065950
     46 H7A          1.8030     2.1210     1.7100 h1         1 294       0.065950
     47 H9          -1.5850     1.1890     0.8300 h1         1 294       0.065950
     48 H9A         -0.1730     2.1200     0.3020 h1         1 294       0.065950
@<TRIPOS>BOND
     1     1    19 1
     2     1    23 1
     3     2     3 ar
     4     2     7 ar
     5     2    24 1
     6     3     4 ar
     7     4     5 ar
     8     5     6 ar
     9     5    27 1
    10     6     7 ar
    11     8     9 ar
    12     8    13 ar
    13     8    27 1
    14     9    10 ar
    15    10    11 ar
    16    11    12 ar
    17    11    14 1
    18    12    13 ar
    19    14    28 1
    20    14    29 1
    21    14    30 1
    22    15    16 1
    23    16    17 1
    24    17    18 2
    25    17    19 1
    26    19    20 1
    27    19    24 1
    28    20    21 1
    29    21    22 1
    30    22    23 1
    31    24    25 2
    32    24    26 2
    33     1    31 1
    34     1    32 1
    35     3    33 1
    36     4    34 1
    37     6    35 1
    38     7    36 1
    39     9    37 1
    40    10    38 1
    41    12    39 1
    42    13    40 1
    43    15    41 1
    44    16    42 1
    45    20    43 1
    46    20    44 1
    47    21    45 1
    48    21    46 1
    49    23    47 1
    50    23    48 1
@<TRIPOS>SUBSTRUCTURE
     1 294         1 TEMP              0 ****  ****    0 ROOT
