@<TRIPOS>MOLECULE
molecule
   22    22     1     0     0
SMALL
bcc


@<TRIPOS>ATOM
      1 C1           0.0000     0.0000     0.0000 ca         1 295      -0.086000
      2 C            1.3820     0.0000     0.0000 ca         1 295      -0.181500
      3 C5           2.0740     0.0000     1.1980 ca         1 295       0.104900
      4 C4           1.3810     0.0000     2.3970 ca         1 295      -0.181500
      5 C3          -0.0020     0.0010     2.3940 ca         1 295      -0.086000
      6 C2          -0.6910     0.0000     1.1970 ca         1 295      -0.100300
      7 C6          -2.1990     0.0010     1.1960 c3         1 295       0.212400
      8 O4          -2.6750     0.8670     2.2270 oh         1 295      -0.564800
      9 C7          -2.7090    -1.4190     1.4460 c3         1 295       0.041100
     10 C8          -4.2160    -1.4200     1.4450 c          1 295       0.867600
     11 O1          -4.8200    -2.0200     0.5870 o          1 295      -0.831800
     12 O           -4.8870    -0.7520     2.3970 o          1 295      -0.831800
     13 O3          -2.2320    -2.2860     0.4140 oh         1 295      -0.617800
     14 F1           3.4250    -0.0010     1.1990 f          1 295      -0.162900
     15 H1          -0.5420    -0.0000    -0.9380 ha         1 295       0.148500
     16 H            1.9240    -0.0000    -0.9380 ha         1 295       0.129500
     17 H4           1.9210     0.0000     3.3360 ha         1 295       0.129500
     18 H3          -0.5450     0.0010     3.3320 ha         1 295       0.148500
     19 H6          -2.5600     0.3510     0.2360 h1         1 295       0.046700
     20 HO4         -2.8760     1.7120     1.8610 ho         1 295       0.389000
     21 H7          -2.3490    -1.7680     2.4060 h1         1 295       0.030700
     22 HO3         -2.2630    -3.1790     0.7150 ho         1 295       0.397000
@<TRIPOS>BOND
     1     1     2 ar
     2     1     6 ar
     3     1    15 1
     4     2     3 ar
     5     2    16 1
     6     3    14 1
     7     3     4 ar
     8     5     4 ar
     9     4    17 1
    10     6     5 ar
    11     5    18 1
    12     7     6 1
    13     9     7 1
    14     7     8 1
    15     7    19 1
    16     8    20 1
    17    13     9 1
    18    10     9 1
    19     9    21 1
    20    11    10 1
    21    10    12 1
    22    13    22 1
@<TRIPOS>SUBSTRUCTURE
     1 295         1 TEMP              0 ****  ****    0 ROOT
