@<TRIPOS>MOLECULE
295
   22    22     1     0     0
SMALL
bcc


@<TRIPOS>ATOM
      1 C1          0.0460   -0.4150    0.1670 ca        1 295     -0.090000
      2 C           1.4350   -0.4070    0.0990 ca        1 295     -0.180500
      3 C5          2.1790    0.0310    1.2090 ca        1 295      0.090900
      4 C4          1.5230    0.4490    2.3790 ca        1 295     -0.180500
      5 C3          0.1320    0.4310    2.4280 ca        1 295     -0.090000
      6 C2         -0.6190    0.0050    1.3270 ca        1 295     -0.064300
      7 C6         -2.1240    0.0110    1.3550 c3        1 295      0.189400
      8 O4         -2.5320    0.7300    2.5100 oh        1 295     -0.649800
      9 C7         -2.7210   -1.4120    1.3240 c3        1 295     -0.014900
     10 C8         -4.2730   -1.3520    1.2970 c         1 295      0.891600
     11 O1         -4.8400   -1.8150    0.2690 o         1 295     -0.825300
     12 O          -4.8690   -0.8550    2.2930 o         1 295     -0.825300
     13 O3         -2.2190   -2.1100    0.2000 oh        1 295     -0.637800
     14 F1          3.5370    0.0490    1.1500 f         1 295     -0.166900
     15 H1         -0.5480   -0.7840   -0.6850 ha        1 295      0.157000
     16 H           1.9550   -0.7430   -0.8070 ha        1 295      0.130000
     17 H4          2.1110    0.7850    3.2440 ha        1 295      0.130000
     18 H3         -0.3930    0.7590    3.3400 ha        1 295      0.157000
     19 H6         -2.4920    0.5700    0.4450 h1        1 295      0.039700
     20 HO4        -3.4300    0.4360    2.7420 ho        1 295      0.458000
     21 H7         -2.3830   -1.9750    2.2350 h1        1 295      0.053700
     22 HO3        -2.9650   -2.2450   -0.4110 ho        1 295      0.429000
@<TRIPOS>BOND
     1    1    2 ar  
     2    1    6 ar  
     3    1   15 1   
     4    2    3 ar  
     5    2   16 1   
     6    3    4 ar  
     7    3   14 1   
     8    4    5 ar  
     9    4   17 1   
    10    5    6 ar  
    11    5   18 1   
    12    6    7 1   
    13    7    8 1   
    14    7    9 1   
    15    7   19 1   
    16    8   20 1   
    17    9   10 1   
    18    9   13 1   
    19    9   21 1   
    20   10   11 1   
    21   10   12 1   
    22   13   22 1   
@<TRIPOS>SUBSTRUCTURE
     1 295         1 TEMP              0 ****  ****    0 ROOT
