@<TRIPOS>MOLECULE
molecule
   27    27     1     0     0
SMALL
bcc


@<TRIPOS>ATOM
      1 C1           0.0000     0.0000     0.0000 c3         1 296       0.125700
      2 O2           1.4290     0.0000     0.0000 os         1 296      -0.319900
      3 C3           2.0470     0.0000     1.2100 ca         1 296       0.171100
      4 C4           3.4320    -0.0010     1.2830 ca         1 296      -0.182000
      5 C5           4.0580    -0.0000     2.5150 ca         1 296      -0.064500
      6 C6           1.2930     0.0050     2.3750 ca         1 296      -0.182000
      7 C7           1.9230     0.0060     3.6040 ca         1 296      -0.064500
      8 C8           3.3040    -0.0000     3.6740 ca         1 296      -0.203300
      9 C9           3.9890    -0.0010     5.0170 c3         1 296       0.131800
     10 N10          5.1530    -0.8970     4.9730 nz         1 296      -0.792600
     11 C11          4.4500     1.4190     5.3540 c3         1 296       0.289600
     12 C12          5.1350     1.4170     6.6980 c          1 296       0.855600
     13 O13          5.1780     2.5420     7.4290 o          1 296      -0.774300
     14 O14          5.6460     0.4060     7.1140 o          1 296      -0.774300
     15 F1           5.3440     1.8640     4.3750 f          1 296      -0.218300
     16 F2           3.3420     2.2720     5.3970 f          1 296      -0.218300
     17 H1          -0.3610     0.8860     0.5080 h1         1 296       0.048033
     18 H1A         -0.3610    -0.8830     0.5140 h1         1 296       0.048033
     19 H1B         -0.3610    -0.0030    -1.0210 h1         1 296       0.048033
     20 H4           4.0230    -0.0010     0.3750 ha         1 296       0.153500
     21 H5           5.1390    -0.0030     2.5730 ha         1 296       0.137000
     22 H6           0.2110     0.0100     2.3210 ha         1 296       0.153500
     23 H7           1.3350     0.0080     4.5140 ha         1 296       0.137000
     24 H9           3.2960    -0.3450     5.7750 hx         1 296       0.125700
     25 HN10         4.9840    -1.6310     4.3150 hn         1 296       0.455800
     26 HN1A         5.3050    -1.2900     5.8800 hn         1 296       0.455800
     27 H103         5.9620    -0.3780     4.6930 hn         1 296       0.455800
@<TRIPOS>BOND
     1     1     2 1
     2     1    17 1
     3     1    18 1
     4     1    19 1
     5     2     3 1
     6     6     3 ar
     7     3     4 ar
     8     4     5 ar
     9     4    20 1
    10     8     5 ar
    11     5    21 1
    12     6     7 ar
    13     6    22 1
    14     7     8 ar
    15     7    23 1
    16     8     9 1
    17    10     9 1
    18     9    11 1
    19     9    24 1
    20    10    25 1
    21    10    26 1
    22    11    15 1
    23    11    12 1
    24    11    16 1
    25    13    12 1
    26    12    14 1
    27    27    10 1
@<TRIPOS>SUBSTRUCTURE
     1 296         1 TEMP              0 ****  ****    0 ROOT
