@<TRIPOS>MOLECULE
molecule
   44    43     1     0     0
SMALL
bcc


@<TRIPOS>ATOM
      1 N1           0.0000     0.0000     0.0000 nz         1 297      -0.810600
      2 C2           1.4690     0.0000     0.0000 c3         1 297       0.091800
      3 C3           1.9790     0.0000     1.4420 c3         1 297      -0.112400
      4 C4           3.5090     0.0000     1.4410 c3         1 297      -0.075900
      5 C5           4.0210    -0.0010     2.8840 c3         1 297      -0.079400
      6 C6           5.5500    -0.0000     2.8830 c3         1 297      -0.080400
      7 C7           6.0610    -0.0000     4.3250 c3         1 297      -0.080400
      8 C8           7.5910    -0.0010     4.3250 c3         1 297      -0.080400
      9 C9           8.1020    -0.0010     5.7680 c3         1 297      -0.080400
     10 C10          9.6310    -0.0010     5.7660 c3         1 297      -0.079400
     11 C11         10.1420    -0.0010     7.2090 c3         1 297      -0.075900
     12 C12         11.6720    -0.0010     7.2090 c3         1 297      -0.112400
     13 C13         12.1820    -0.0020     8.6500 c3         1 297       0.091800
     14 N14         13.6510    -0.0020     8.6500 nz         1 297      -0.810600
     15 HN1         -0.3340    -0.8170     0.4720 hn         1 297       0.458467
     16 HN1A        -0.3340     0.8170     0.4720 hn         1 297       0.458467
     17 H2           1.8300    -0.8840    -0.5110 hx         1 297       0.113700
     18 H2A          1.8300     0.8840    -0.5110 hx         1 297       0.113700
     19 H3           1.6190    -0.8850     1.9520 hc         1 297       0.066700
     20 H3A          1.6180     0.8840     1.9530 hc         1 297       0.066700
     21 H4           3.8710    -0.8840     0.9300 hc         1 297       0.058700
     22 H4A          3.8700     0.8850     0.9310 hc         1 297       0.058700
     23 H5           3.6600     0.8830     3.3950 hc         1 297       0.050700
     24 H5A          3.6600    -0.8860     3.3940 hc         1 297       0.050700
     25 H6           5.9110    -0.8850     2.3720 hc         1 297       0.048700
     26 H6A          5.9100     0.8840     2.3720 hc         1 297       0.048700
     27 H7           5.7000    -0.8840     4.8360 hc         1 297       0.047700
     28 H7A          5.7000     0.8840     4.8360 hc         1 297       0.047700
     29 H8           7.9520    -0.8860     3.8140 hc         1 297       0.047700
     30 H8A          7.9520     0.8830     3.8140 hc         1 297       0.047700
     31 H9           7.7410     0.8840     6.2780 hc         1 297       0.048700
     32 H9A          7.7400    -0.8850     6.2790 hc         1 297       0.048700
     33 H10          9.9920    -0.8860     5.2550 hc         1 297       0.050700
     34 H10A         9.9930     0.8830     5.2550 hc         1 297       0.050700
     35 H11          9.7810    -0.8860     7.7200 hc         1 297       0.058700
     36 H11A         9.7810     0.8830     7.7200 hc         1 297       0.058700
     37 H12         12.0330     0.8840     6.6980 hc         1 297       0.066700
     38 H12A        12.0330    -0.8850     6.6970 hc         1 297       0.066700
     39 H13         11.8210     0.8820     9.1620 hx         1 297       0.113700
     40 H13A        11.8210    -0.8870     9.1600 hx         1 297       0.113700
     41 HN14        13.9850     0.8150     8.1790 hn         1 297       0.458467
     42 HN1B        13.9850    -0.0030     9.5940 hn         1 297       0.458467
     43 H131        -0.3340    -0.0000    -0.9440 hn         1 297       0.458467
     44 H143        13.9850    -0.8190     8.1780 hn         1 297       0.458467
@<TRIPOS>BOND
     1     1     2 1   
     2     2     3 1   
     3     3     4 1   
     4     4     5 1   
     5     5     6 1   
     6     6     7 1   
     7     7     8 1   
     8     8     9 1   
     9     9    10 1   
    10    10    11 1   
    11    11    12 1   
    12    12    13 1   
    13    13    14 1   
    14     1    15 1   
    15     1    16 1   
    16     2    17 1   
    17     2    18 1   
    18     3    19 1   
    19     3    20 1   
    20     4    21 1   
    21     4    22 1   
    22     5    23 1   
    23     5    24 1   
    24     6    25 1   
    25     6    26 1   
    26     7    27 1   
    27     7    28 1   
    28     8    29 1   
    29     8    30 1   
    30     9    31 1   
    31     9    32 1   
    32    10    33 1   
    33    10    34 1   
    34    11    35 1   
    35    11    36 1   
    36    12    37 1   
    37    12    38 1   
    38    13    39 1   
    39    13    40 1   
    40    14    41 1   
    41    14    42 1   
    42    43     1 1   
    43    44    14 1   
@<TRIPOS>SUBSTRUCTURE
     1 297         1 TEMP              0 ****  ****    0 ROOT
