@<TRIPOS>MOLECULE
molecule
   34    33     1     0     0
SMALL
bcc


@<TRIPOS>ATOM
      1 C1           0.0000     0.0000     0.0000 c3         1 298      -0.025900
      2 C2           1.5070     0.0000     0.0000 c2         1 298      -0.150700
      3 C3           2.1720     0.0000     1.1530 ce         1 298      -0.314100
      4 C4           3.6400     0.0000     1.1530 ce         1 298       0.396500
      5 N5           4.2880     0.1000     2.2710 n2         1 298      -0.591900
      6 C6           3.5590     0.0910     3.5430 c3         1 298       0.081300
      7 C7           3.9620    -1.1440     4.3520 c3         1 298      -0.074400
      8 C8           3.2010    -1.1540     5.6790 c3         1 298      -0.074400
      9 C9           3.6030    -2.3880     6.4880 c3         1 298       0.081300
     10 N10          2.8750    -2.3980     7.7600 n2         1 298      -0.591900
     11 C11          2.0160    -3.3360     8.0080 ce         1 298       0.396500
     12 C12          1.2870    -3.3450     9.2830 ce         1 298      -0.314100
     13 C13          0.4050    -4.3080     9.5370 c2         1 298      -0.150700
     14 C14          0.1550    -5.3900     8.5180 c3         1 298      -0.025900
     15 H1          -0.3610     0.9070     0.4700 hc         1 298       0.048367
     16 H1A         -0.3610    -0.0470    -1.0200 hc         1 298       0.048367
     17 H1B         -0.3610    -0.8600     0.5500 hc         1 298       0.048367
     18 H2           2.0490     0.0000    -0.9380 ha         1 298       0.136000
     19 H3           1.6300     0.0000     2.0910 ha         1 298       0.091000
     20 H4           3.0680    -0.8980     1.3520 h4         1 298       0.121300
     21 H6           2.4940     0.0640     3.3490 h1         1 298       0.042450
     22 H6A          3.8020     0.9850     4.1050 h1         1 298       0.042450
     23 H7           3.7200    -2.0390     3.7900 hc         1 298       0.050700
     24 H7A          5.0270    -1.1180     4.5460 hc         1 298       0.050700
     25 H8           3.4430    -0.2590     6.2410 hc         1 298       0.050700
     26 H8A          2.1350    -1.1810     5.4850 hc         1 298       0.050700
     27 H9           3.3610    -3.2820     5.9270 h1         1 298       0.042450
     28 H9A          4.6680    -2.3610     6.6830 h1         1 298       0.042450
     29 H11          1.8370    -4.1130     7.2760 h4         1 298       0.121300
     30 H12          2.1360    -3.9790     9.0600 ha         1 298       0.091000
     31 H13         -0.2060    -4.1840     8.6510 ha         1 298       0.136000
     32 H14         -0.7830    -5.8840     8.7390 hc         1 298       0.048367
     33 H14A         0.9610    -6.1120     8.5530 hc         1 298       0.048367
     34 H14B         0.1070    -4.9500     7.5290 hc         1 298       0.048367
@<TRIPOS>BOND
     1     1     2 1   
     2     2     3 2   
     3     3     4 1   
     4     4     5 2   
     5     5     6 1   
     6     6     7 1   
     7     7     8 1   
     8     8     9 1   
     9     9    10 1   
    10    10    11 2   
    11    11    12 1   
    12    12    13 2   
    13    13    14 1   
    14     1    15 1   
    15     1    16 1   
    16     1    17 1   
    17     2    18 1   
    18     3    19 1   
    19     4    20 1   
    20     6    21 1   
    21     6    22 1   
    22     7    23 1   
    23     7    24 1   
    24     8    25 1   
    25     8    26 1   
    26     9    27 1   
    27     9    28 1   
    28    11    29 1   
    29    12    30 1   
    30    13    31 1   
    31    14    32 1   
    32    14    33 1   
    33    14    34 1   
@<TRIPOS>SUBSTRUCTURE
     1 298         1 TEMP              0 ****  ****    0 ROOT
