@<TRIPOS>MOLECULE
298
   34    36     1     0     0
SMALL
bcc


@<TRIPOS>ATOM
      1 C1           0.0000     0.0000     0.0000 DU         1 298      -0.023000
      2 C2           1.5070     0.0000     0.0000 c2         1 298      -0.133000
      3 C3           2.1720     0.0000     1.1530 c2         1 298      -0.096000
      4 C4           3.6400     0.0000     1.1530 c3         1 298       0.052000
      5 N5           4.2880     0.1000     2.2710 n2         1 298      -0.229000
      6 C6           3.5590     0.0910     3.5430 c3         1 298      -0.033000
      7 C7           3.9620    -1.1440     4.3520 c3         1 298      -0.109000
      8 C8           3.2010    -1.1540     5.6790 c3         1 298      -0.100000
      9 C9           3.6030    -2.3880     6.4880 c3         1 298      -0.053000
     10 N10          2.8750    -2.3980     7.7600 n2         1 298      -0.028000
     11 C11          2.0160    -3.3360     8.0080 c2         1 298      -0.388000
     12 C12          1.2870    -3.3450     9.2830 c3         1 298      -0.282000
     13 C13          0.4050    -4.3080     9.5370 c2         1 298      -0.002000
     14 C14          0.1550    -5.3900     8.5180 c3         1 298      -0.087000
     15 H1          -0.3610    -0.6760    -0.7660 ha         1 298       0.044667
     16 H1A         -0.3610    -0.3250     0.9680 ha         1 298       0.044667
     17 H1B         -0.3610     1.0010    -0.2020 ha         1 298       0.044667
     18 H2           0.8950    -0.8750     0.1840 DU         1 298       0.055000
     19 H3           2.7840    -0.8750     0.9680 DU         1 298       0.023000
     20 H4           4.1800     0.0070     0.2140 h1         1 298       0.138000
     21 H6           2.4940     0.0640     3.3490 h1         1 298       0.054500
     22 H6A          3.8020     0.9850     4.1050 h1         1 298       0.054500
     23 H7           5.0270    -1.1170     4.5460 hc         1 298       0.058000
     24 H7A          3.7200    -2.0390     3.7900 hc         1 298       0.058000
     25 H8           2.1350    -1.1810     5.4850 hc         1 298       0.060500
     26 H8A          3.4430    -0.2590     6.2410 hc         1 298       0.060500
     27 H9           3.3610    -3.2820     5.9270 h1         1 298       0.058500
     28 H9A          4.6680    -2.3610     6.6830 h1         1 298       0.058500
     29 H11          2.4340    -3.6710     8.9500 DU         1 298       0.324000
     30 H12          1.4660    -2.5670    10.0150 hc         1 298       0.103000
     31 H13         -0.1330    -4.3150    10.4770 ha         1 298       0.093000
     32 H14         -0.5990    -6.0720     8.8930 hc         1 298       0.058667
     33 H14A        -0.1900    -4.9420     7.5940 hc         1 298       0.058667
     34 H14B         1.0740    -5.9330     8.3350 hc         1 298       0.058667
@<TRIPOS>BOND
     1     1     2 1   
     2     1    15 1   
     3     1    16 1   
     4     1    17 1   
     5     1    18 1   
     6     2     3 1   
     7     2    18 1   
     8     3     4 1   
     9     3    19 1   
    10     4     5 1   
    11     4    19 1   
    12     4    20 1   
    13     5     6 1   
    14     6     7 1   
    15     6    21 1   
    16     6    22 1   
    17     7     8 1   
    18     7    23 1   
    19     7    24 1   
    20     8     9 1   
    21     8    25 1   
    22     8    26 1   
    23     9    10 1   
    24     9    27 1   
    25     9    28 1   
    26    10    11 1   
    27    11    12 1   
    28    11    29 1   
    29    12    13 1   
    30    12    29 1   
    31    12    30 1   
    32    13    14 1   
    33    13    31 1   
    34    14    32 1   
    35    14    33 1   
    36    14    34 1   
@<TRIPOS>SUBSTRUCTURE
     1 298         1 TEMP              0 ****  ****    0 ROOT
