@<TRIPOS>MOLECULE
molecule
   23    23     1     0     0
SMALL
bcc


@<TRIPOS>ATOM
      1 C1           0.0000     0.0000     0.0000 ca         1 299      -0.039000
      2 C2           1.3790     0.0000     0.0000 ca         1 299      -0.194300
      3 C3           2.0810     0.0000     1.1880 ca         1 299      -0.039000
      4 C4           1.4000    -0.0030     2.4100 ca         1 299      -0.231600
      5 C5          -0.0040    -0.0090     2.4240 ca         1 299       0.286100
      6 C6          -0.7060    -0.0090     1.2080 ca         1 299      -0.231600
      7 C7           2.1270     0.0070    -1.3090 c3         1 299      -0.026800
      8 C11          2.1490    -0.0030     3.6720 c          1 299       0.650000
      9 C12         -2.1740    -0.0150     1.2050 c          1 299       0.650000
     10 O13         -0.6740    -0.0140     3.5980 os         1 299      -0.420500
     11 P14         -0.9100     1.5250     4.0050 p5         1 299       1.079900
     12 O15         -1.7070     1.5950     5.4020 o          1 299      -0.862500
     13 O16          0.5110     2.2640     4.1610 o          1 299      -0.862500
     14 O17         -1.7010     2.1980     2.9520 o          1 299      -0.862500
     15 O20          3.3620     0.0020     3.6570 o          1 299      -0.633100
     16 O22         -2.7780    -0.0150     0.1530 o          1 299      -0.633100
     17 H1          -0.5390    -0.0000    -0.9400 ha         1 299       0.121500
     18 H3           3.1650     0.0020     1.1740 ha         1 299       0.121500
     19 H71          2.9280    -0.7210    -1.2700 hc         1 299       0.018033
     20 H72          1.4480    -0.2470    -2.1140 hc         1 299       0.018033
     21 H73          2.5410     0.9920    -1.4830 hc         1 299       0.018033
     22 H11          1.6200    -0.0560     4.6160 h4         1 299       0.036700
     23 H12         -2.7160    -0.0670     2.1410 h4         1 299       0.036700
@<TRIPOS>BOND
     1     1     2 ar
     2     1     6 ar
     3     1    17 1
     4     2     3 ar
     5     2     7 1
     6     3     4 ar
     7     3    18 1
     8     4     5 ar
     9     4     8 1
    10     5     6 ar
    11     5    10 1
    12     6     9 1
    13     7    19 1
    14     7    20 1
    15     7    21 1
    16     8    15 2
    17     8    22 1
    18     9    16 2
    19     9    23 1
    20    10    11 1
    21    11    12 1
    22    11    13 1
    23    11    14 1
@<TRIPOS>SUBSTRUCTURE
     1 299         1 TEMP              0 ****  ****    0 ROOT
