@<TRIPOS>MOLECULE
299
   23    23     1     0     0
SMALL
bcc


@<TRIPOS>ATOM
      1 C1          0.0630   -0.0290   -0.1110 ca        1 299     -0.004000
      2 C2          1.4580   -0.1410   -0.1300 ca        1 299     -0.274300
      3 C3          2.1500   -0.0340    1.0820 ca        1 299     -0.004000
      4 C4          1.4900    0.1400    2.2890 ca        1 299     -0.340100
      5 C5          0.0500    0.1660    2.3350 ca        1 299      0.420100
      6 C6         -0.6420    0.1450    1.0710 ca        1 299     -0.340100
      7 C7          2.1870   -0.3280   -1.4020 c3        1 299      0.000200
      8 C11         2.2270    0.3610    3.5370 c         1 299      0.579500
      9 C12        -2.0890    0.3710    1.0690 c         1 299      0.579500
     10 O13        -0.5890    0.0950    3.4520 os        1 299     -0.402500
     11 P14        -1.2380    1.4080    4.5920 p5        1 299      1.309900
     12 O15        -1.8470    0.5670    5.6560 o         1 299     -0.880167
     13 O16         0.0740    2.0590    4.8830 o         1 299     -0.880167
     14 O17        -2.1510    2.0640    3.6110 o         1 299     -0.880167
     15 O20         3.4450    0.1310    3.6500 o         1 299     -0.665100
     16 O22        -2.8060    0.1450    0.0760 o         1 299     -0.665100
     17 H1         -0.5000   -0.0700   -1.0580 ha        1 299      0.108000
     18 H3          3.2520   -0.0790    1.0870 ha        1 299      0.108000
     19 H71         3.1150   -0.9320   -1.2480 hc        1 299      0.004700
     20 H72         1.5500   -0.8510   -2.1580 hc        1 299      0.004700
     21 H73         2.4900    0.6600   -1.8350 hc        1 299      0.004700
     22 H11         1.6070    0.7860    4.3750 h4        1 299      0.108200
     23 H12        -2.4960    0.7950    2.0290 h4        1 299      0.108200
@<TRIPOS>BOND
     1    1    2 ar  
     2    1    6 ar  
     3    1   17 1   
     4    2    3 ar  
     5    2    7 1   
     6    3    4 ar  
     7    3   18 1   
     8    4    5 ar  
     9    4    8 1   
    10    5    6 ar  
    11    5   10 1   
    12    6    9 1   
    13    7   19 1   
    14    7   20 1   
    15    7   21 1   
    16    8   15 2   
    17    8   22 1   
    18    9   16 2   
    19    9   23 1   
    20   10   11 1   
    21   11   12 1   
    22   11   13 1   
    23   11   14 1   
@<TRIPOS>SUBSTRUCTURE
     1 299         1 TEMP              0 ****  ****    0 ROOT
