@<TRIPOS>MOLECULE
29A
   49    51     1     0     0
SMALL
bcc


@<TRIPOS>ATOM
      1 C1           0.0000     0.0000     0.0000 ca         1 29A      -0.152300
      2 C2           1.3850     0.0000     0.0000 ca         1 29A       0.136900
      3 C3           2.0770     0.0000     1.1980 ca         1 29A      -0.166000
      4 C4           1.3830    -0.0000     2.3970 ca         1 29A       0.130900
      5 C5          -0.0010    -0.0000     2.3950 ca         1 29A      -0.142000
      6 C6          -0.6910     0.0060     1.1970 ca         1 29A      -0.034000
      7 C7          -0.7540     0.0010    -1.3050 c3         1 29A       0.278700
      8 O8          -2.1590     0.0000    -1.0430 os         1 29A      -0.284900
      9 C9          -2.9830     0.0000    -2.1170 cc         1 29A       0.359700
     10 C10         -4.3540     0.0000    -1.9400 cd         1 29A      -0.296800
     11 C11         -5.1770     0.0000    -3.0760 c          1 29A       0.602700
     12 N12         -4.5990     0.0010    -4.2960 n          1 29A       0.198500
     13 C13         -3.2480     0.0010    -4.4080 cd         1 29A       0.367800
     14 N14         -2.4740     0.0060    -3.3570 nc         1 29A      -0.618300
     15 C15         -5.3950     0.0010    -5.4480 ca         1 29A      -0.158400
     16 C16         -5.7900    -1.2020    -6.0200 ca         1 29A      -0.031300
     17 C17         -6.5770    -1.2080    -7.1570 ca         1 29A      -0.107000
     18 C18         -6.9760    -0.0180    -7.7300 ca         1 29A      -0.054000
     19 C19         -6.5850     1.1960    -7.1640 ca         1 29A      -0.155600
     20 C20         -5.7950     1.2020    -6.0150 ca         1 29A       0.005000
     21 F21          2.0600    -0.0000    -1.1710 f          1 29A      -0.123900
     22 F22          2.0570    -0.0010     3.5670 f          1 29A      -0.123900
     23 Cl23        -5.0420    -0.0020    -0.3470 cl         1 29A       0.053600
     24 O24         -6.3930     0.0000    -2.9640 o          1 29A      -0.659500
     25 C25         -5.3590    -2.5060    -5.3990 c3         1 29A       0.043200
     26 C26         -7.0110     2.4720    -7.7770 c          1 29A       0.593700
     27 O27         -6.6690     3.5290    -7.2820 o          1 29A      -0.650100
     28 N28         -7.7770     2.4650    -8.8860 ns         1 29A      -0.185900
     29 C29         -8.1980     3.7290    -9.4940 c3         1 29A       0.044000
     30 C30         -9.0540     3.4410   -10.7300 c3         1 29A       0.210400
     31 O31        -10.2620     2.7920   -10.3320 oh         1 29A      -0.595800
     32 HN28        -8.0420     1.5950    -9.3050 hn         1 29A       0.184500
     33 HO31       -10.8860     2.8300   -11.0370 ho         1 29A       0.397000
     34 H3           3.1600     0.0000     1.1980 ha         1 29A       0.136000
     35 H5          -0.5440     0.0020     3.3330 ha         1 29A       0.125000
     36 H6          -1.7740     0.0050     1.1960 ha         1 29A       0.131000
     37 H7          -0.4930     0.8860    -1.8730 h1         1 29A       0.025700
     38 H7A         -0.4920    -0.8830    -1.8740 h1         1 29A       0.025700
     39 H13         -2.8000     0.0040    -5.3950 h5         1 29A       0.016800
     40 H17         -6.8820    -2.1490    -7.5980 ha         1 29A       0.115000
     41 H18         -7.5910    -0.0260    -8.6220 ha         1 29A       0.106000
     42 H20         -5.4890     2.1410    -5.5710 ha         1 29A       0.137000
     43 H25         -5.6280    -3.3250    -6.0550 hc         1 29A       0.018700
     44 H25A        -5.8530    -2.6320    -4.4430 hc         1 29A       0.018700
     45 H25B        -4.2860    -2.4990    -5.2530 hc         1 29A       0.018700
     46 H29         -7.3240     4.2990    -9.7850 h1         1 29A       0.034200
     47 H29A        -8.7790     4.2980    -8.7780 h1         1 29A       0.034200
     48 H30         -9.2920     4.3720   -11.2290 h1         1 29A      -0.007300
     49 H30A        -8.5050     2.7980   -11.4080 h1         1 29A      -0.007300
@<TRIPOS>BOND
     1     1     2 ar  
     2     1     6 ar  
     3     1     7 1   
     4     2     3 ar  
     5     2    21 1   
     6     3     4 ar  
     7     3    34 1   
     8     4     5 ar  
     9     4    22 1   
    10     5     6 ar  
    11     5    35 1   
    12     6    36 1   
    13     7     8 1   
    14     7    37 1   
    15     7    38 1   
    16     8     9 1   
    17     9    10 2   
    18     9    14 1   
    19    10    11 1   
    20    10    23 1   
    21    11    12 1   
    22    11    24 2   
    23    12    13 1   
    24    12    15 1   
    25    13    14 2   
    26    13    39 1   
    27    15    16 ar  
    28    15    20 ar  
    29    16    17 ar  
    30    16    25 1   
    31    17    18 ar  
    32    17    40 1   
    33    18    19 ar  
    34    18    41 1   
    35    19    20 ar  
    36    19    26 1   
    37    20    42 1   
    38    25    43 1   
    39    25    44 1   
    40    25    45 1   
    41    26    27 2   
    42    26    28 1   
    43    28    29 1   
    44    28    32 1   
    45    29    30 1   
    46    29    46 1   
    47    29    47 1   
    48    30    31 1   
    49    30    48 1   
    50    30    49 1   
    51    31    33 1   
@<TRIPOS>SUBSTRUCTURE
     1 29A         1 TEMP              0 ****  ****    0 ROOT
