@<TRIPOS>MOLECULE
molecule
   28    30     1     0     0
SMALL
bcc


@<TRIPOS>ATOM
      1 C1           0.0000     0.0000     0.0000 ca         1 29B      -0.167000
      2 C2           1.3850     0.0000     0.0000 ca         1 29B       0.129900
      3 C3           2.0820     0.0000     1.1970 ca         1 29B      -0.167000
      4 C4           1.3990     0.0010     2.3960 ca         1 29B      -0.096500
      5 C5           0.0060     0.0020     2.4000 ca         1 29B      -0.020000
      6 C6          -0.6910     0.0070     1.1940 ca         1 29B      -0.096500
      7 C7          -0.7340     0.0020     3.6870 cc         1 29B      -0.249300
      8 C8          -1.7930     0.8740     4.0450 cc         1 29B       0.402800
      9 N9          -2.1820     0.5580     5.2610 nd         1 29B      -0.494800
     10 N10         -1.3970    -0.5100     5.7120 na         1 29B      -0.037600
     11 C11         -0.5240    -0.8400     4.7370 cd         1 29B      -0.098300
     12 C12         -2.3600     1.9530     3.1990 ca         1 29B      -0.081500
     13 C13         -1.5470     2.6870     2.3320 ca         1 29B      -0.232300
     14 C14         -2.1160     3.6810     1.5620 ca         1 29B       0.414200
     15 N15         -3.4070     3.9420     1.6380 nb         1 29B      -0.688000
     16 C16         -4.2090     3.2710     2.4440 ca         1 29B       0.414200
     17 C17         -3.7240     2.2580     3.2440 ca         1 29B      -0.232300
     18 F18          2.0590    -0.0010    -1.1720 f          1 29B      -0.141900
     19 HN10        -1.4740    -0.9570     6.6040 hn         1 29B       0.334700
     20 H1          -0.5410     0.0020    -0.9380 ha         1 29B       0.147000
     21 H3           3.1650    -0.0000     1.1920 ha         1 29B       0.147000
     22 H4           1.9450    -0.0010     3.3310 ha         1 29B       0.142500
     23 H6          -1.7740     0.0070     1.1940 ha         1 29B       0.142500
     24 H11          0.2170    -1.6280     4.7850 h4         1 29B       0.177000
     25 H13         -0.4860     2.4790     2.2640 ha         1 29B       0.151000
     26 H14         -1.4940     4.2560     0.8860 h4         1 29B       0.025600
     27 H16         -5.2640     3.5170     2.4730 h4         1 29B       0.025600
     28 H17         -4.3880     1.7120     3.9030 ha         1 29B       0.151000
@<TRIPOS>BOND
     1     6     1 ar
     2     2     1 ar
     3     1    20 1
     4     3     2 ar
     5     2    18 1
     6     4     3 ar
     7     3    21 1
     8     4     5 ar
     9     4    22 1
    10     7     5 1
    11     5     6 ar
    12     6    23 1
    13     8     7 1
    14     7    11 2
    15    12     8 1
    16     9     8 2
    17     9    10 1
    18    19    10 1
    19    10    11 1
    20    11    24 1
    21    13    12 ar
    22    12    17 ar
    23    14    13 ar
    24    13    25 1
    25    14    15 ar
    26    14    26 1
    27    15    16 ar
    28    16    17 ar
    29    16    27 1
    30    17    28 1
@<TRIPOS>SUBSTRUCTURE
     1 29B         1 TEMP              0 ****  ****    0 ROOT
