@<TRIPOS>MOLECULE
29B
   28    30     1     0     0
SMALL
bcc


@<TRIPOS>ATOM
      1 C1          0.1190    0.0660   -0.0650 ca        1 29B     -0.165000
      2 C2          1.5040   -0.1810   -0.0430 ca        1 29B      0.124900
      3 C3          2.1760   -0.3280    1.1850 ca        1 29B     -0.165000
      4 C4          1.4600   -0.2300    2.3730 ca        1 29B     -0.098000
      5 C5          0.0780    0.0170    2.3640 ca        1 29B     -0.018000
      6 C6         -0.5800    0.1630    1.1320 ca        1 29B     -0.098000
      7 C7         -0.6480    0.0820    3.6060 cc        1 29B     -0.186300
      8 C8         -1.7760    0.9240    3.9870 cc        1 29B      0.360800
      9 N9         -2.1620    0.6140    5.2660 nd        1 29B     -0.499800
     10 N10        -1.3540   -0.3500    5.6930 na        1 29B     -0.006600
     11 C11        -0.4080   -0.7210    4.7400 cd        1 29B     -0.138300
     12 C12        -2.4190    1.9630    3.2000 ca        1 29B     -0.080500
     13 C13        -1.6630    2.8180    2.3840 ca        1 29B     -0.226800
     14 C14        -2.3290    3.8190    1.6580 ca        1 29B      0.387200
     15 N15        -3.6630    4.0100    1.6980 nb        1 29B     -0.661000
     16 C16        -4.3770    3.1830    2.4870 ca        1 29B      0.387200
     17 C17        -3.8080    2.1520    3.2550 ca        1 29B     -0.226800
     18 F18         2.1930   -0.2780   -1.2050 f         1 29B     -0.139900
     19 HN10       -1.4580   -0.7180    6.6100 hn        1 29B      0.326700
     20 H1         -0.3990    0.1780   -1.0280 ha        1 29B      0.150500
     21 H3          3.2590   -0.5180    1.1940 ha        1 29B      0.150500
     22 H4          1.9850   -0.3420    3.3330 ha        1 29B      0.142500
     23 H6         -1.6630    0.3600    1.1180 ha        1 29B      0.142500
     24 H11         0.3320   -1.5000    4.9160 h4        1 29B      0.182000
     25 H13        -0.5720    2.7040    2.3120 ha        1 29B      0.154500
     26 H14        -1.7650    4.5110    1.0070 h4        1 29B      0.023100
     27 H16        -5.4670    3.3610    2.5050 h4        1 29B      0.023100
     28 H17        -4.4430    1.5150    3.8860 ha        1 29B      0.154500
@<TRIPOS>BOND
     1    1    2 ar  
     2    1    6 ar  
     3    1   20 1   
     4    2    3 ar  
     5    2   18 1   
     6    3    4 ar  
     7    3   21 1   
     8    4    5 ar  
     9    4   22 1   
    10    5    6 ar  
    11    5    7 1   
    12    6   23 1   
    13    7    8 1   
    14    7   11 2   
    15    8    9 2   
    16    8   12 1   
    17    9   10 1   
    18   10   11 1   
    19   10   19 1   
    20   11   24 1   
    21   12   13 ar  
    22   12   17 ar  
    23   13   14 ar  
    24   13   25 1   
    25   14   15 ar  
    26   14   26 1   
    27   15   16 ar  
    28   16   17 ar  
    29   16   27 1   
    30   17   28 1   
@<TRIPOS>SUBSTRUCTURE
     1 29B         1 TEMP              0 ****  ****    0 ROOT
