@<TRIPOS>MOLECULE
molecule
   40    42     1     0     0
SMALL
bcc


@<TRIPOS>ATOM
      1 C            0.0000     0.0000     0.0000 c3         1 29E       0.148100
      2 N            1.4690     0.0000     0.0000 n7         1 29E      -0.822200
      3 C1           1.9960     0.0000     1.3710 c3         1 29E       0.152800
      4 C2           3.5250     0.0010     1.3300 c3         1 29E      -0.074400
      5 C3           4.0730     0.0010     2.7580 c3         1 29E       0.221400
      6 C14          5.5750    -0.1230     2.7190 cc         1 29E      -0.070400
      7 S            6.6980     1.2170     2.5320 ss         1 29E      -0.114800
      8 C17          8.0700     0.1190     2.6070 cc         1 29E      -0.074100
      9 C16          7.6320    -1.1320     2.7620 cd         1 29E      -0.159000
     10 C15          6.2560    -1.2650     2.8290 cd         1 29E      -0.150000
     11 O            3.7130     1.2220     3.4070 os         1 29E      -0.324900
     12 C4           3.6550     1.2050     4.7630 ca         1 29E       0.154100
     13 C13          3.1910     2.3360     5.4680 ca         1 29E      -0.052000
     14 C12          2.7800     3.4960     4.7950 ca         1 29E      -0.094000
     15 C11          2.3380     4.5680     5.5080 ca         1 29E      -0.142000
     16 C10          2.2870     4.5320     6.9000 ca         1 29E      -0.114000
     17 C9           2.6780     3.4220     7.5860 ca         1 29E      -0.127000
     18 C8           3.1390     2.2980     6.8840 ca         1 29E      -0.004000
     19 C7           3.5520     1.1350     7.5580 ca         1 29E      -0.156000
     20 C6           3.9930     0.0620     6.8470 ca         1 29E      -0.085000
     21 C5           4.0410     0.0920     5.4550 ca         1 29E      -0.231000
     22 H1          -0.3610    -0.9050     0.4740 h1         1 29E       0.031700
     23 H2          -0.3610     0.0420    -1.0200 h1         1 29E       0.031700
     24 H3          -0.3610     0.8630     0.5470 h1         1 29E       0.031700
     25 H4           1.8030     0.8090    -0.4860 hn         1 29E       0.352800
     26 H6           1.6490    -0.8850     1.8910 h1         1 29E       0.039200
     27 H7           1.6480     0.8840     1.8910 h1         1 29E       0.039200
     28 H8           3.8720    -0.8840     0.8100 hc         1 29E       0.066700
     29 H9           3.8720     0.8850     0.8100 hc         1 29E       0.066700
     30 H10          3.6560    -0.8360     3.3050 h1         1 29E       0.064700
     31 H11          9.1100     0.4120     2.5380 h4         1 29E       0.171000
     32 H12          8.3030    -1.9800     2.8360 ha         1 29E       0.148000
     33 H13          5.7680    -2.2240     2.9540 ha         1 29E       0.146000
     34 H14          2.8150     3.5390     3.7130 ha         1 29E       0.143000
     35 H15          2.0210     5.4620     4.9860 ha         1 29E       0.128000
     36 H16          1.9300     5.3980     7.4450 ha         1 29E       0.128000
     37 H17          2.6330     3.4070     8.6690 ha         1 29E       0.134000
     38 H18          3.5210     1.0940     8.6410 ha         1 29E       0.133000
     39 H19          4.3050    -0.8340     7.3710 ha         1 29E       0.129000
     40 H20          4.3970    -0.7760     4.9140 ha         1 29E       0.139000
@<TRIPOS>BOND
     1    19    20 ar  
     2    19    18 ar  
     3    20    21 ar  
     4     7     8 1   
     5     7     6 1   
     6    17    18 ar  
     7    17    16 ar  
     8     8     9 2   
     9    18    13 ar  
    10    21    12 ar  
    11    16    15 ar  
    12    13    12 ar  
    13    13    14 ar  
    14    12    11 1   
    15     9    10 1   
    16     6     5 1   
    17     6    10 2   
    18    15    14 ar  
    19     5    11 1   
    20     5     4 1   
    21     4     3 1   
    22     3     2 1   
    23     1     2 1   
    24     1    22 1   
    25     1    23 1   
    26     1    24 1   
    27     2    25 1   
    28     3    26 1   
    29     3    27 1   
    30     4    28 1   
    31     4    29 1   
    32     5    30 1   
    33     8    31 1   
    34     9    32 1   
    35    10    33 1   
    36    14    34 1   
    37    15    35 1   
    38    16    36 1   
    39    17    37 1   
    40    19    38 1   
    41    20    39 1   
    42    21    40 1   
@<TRIPOS>SUBSTRUCTURE
     1 29E         1 TEMP              0 ****  ****    0 ROOT
