@<TRIPOS>MOLECULE
molecule
   39    41     1     0     0
SMALL
bcc


@<TRIPOS>ATOM
      1 C            0.0000     0.0000     0.0000 c3         1 29F      -0.081433
      2 N            4.2350     4.5330    -3.8230 ns         1 29F      -0.473400
      3 O            5.4070     5.4840    -5.4800 o          1 29F      -0.625500
      4 C1           1.5290     0.0000     0.0000 c3         1 29F      -0.029700
      5 N1           3.1150     5.8690    -2.2430 nc         1 29F      -0.652100
      6 C2           2.0390     0.0000     1.4430 c3         1 29F      -0.081433
      7 C3           2.0390    -1.2510    -0.7210 c3         1 29F      -0.081433
      8 C4           2.0320     1.2300    -0.7110 ca         1 29F      -0.044300
      9 C5           1.6970     2.4850    -0.2360 ca         1 29F      -0.134500
     10 C6           2.1540     3.6150    -0.8820 ca         1 29F      -0.086500
     11 C7           2.9570     3.4900    -2.0170 ca         1 29F      -0.157900
     12 C8           3.2920     2.2200    -2.4910 ca         1 29F      -0.086500
     13 C9           2.8320     1.0980    -1.8330 ca         1 29F      -0.134500
     14 C10          3.4500     4.6960    -2.7140 cd         1 29F       0.560500
     15 C11          4.7080     5.6110    -4.4920 c          1 29F       0.709100
     16 C12          4.3450     6.9410    -3.9790 ca         1 29F      -0.209600
     17 C13          4.7830     8.1100    -4.5980 ca         1 29F      -0.051000
     18 C14          4.4140     9.3320    -4.0780 ca         1 29F      -0.157000
     19 C15          3.6140     9.4060    -2.9450 ca         1 29F      -0.092000
     20 C16          3.1710     8.2630    -2.3190 ca         1 29F      -0.124000
     21 C17          3.5290     7.0120    -2.8270 ca         1 29F       0.202400
     22 H           -0.3610    -0.9500     0.3750 hc         1 29F       0.038811
     23 HA          -0.3610     0.1510    -1.0100 hc         1 29F       0.038811
     24 HB          -0.3610     0.7990     0.6360 hc         1 29F       0.038811
     25 HN           4.4610     3.6120    -4.1410 hn         1 29F       0.339500
     26 H2           1.5600     0.7990     1.9950 hc         1 29F       0.038811
     27 H2A          3.1120     0.1510     1.4460 hc         1 29F       0.038811
     28 H2B          1.8070    -0.9500     1.9080 hc         1 29F       0.038811
     29 H3           1.6800    -1.2510    -1.7430 hc         1 29F       0.038811
     30 H3A          1.6770    -2.1350    -0.2100 hc         1 29F       0.038811
     31 H3B          3.1230    -1.2520    -0.7190 hc         1 29F       0.038811
     32 H5           1.0730     2.5800     0.6440 ha         1 29F       0.142000
     33 H6           1.8910     4.5980    -0.5090 ha         1 29F       0.143500
     34 H8           3.9160     2.1160    -3.3700 ha         1 29F       0.143500
     35 H9           3.0910     0.1120    -2.1990 ha         1 29F       0.142000
     36 H13          5.4070     8.0590    -5.4810 ha         1 29F       0.154000
     37 H14          4.7530    10.2430    -4.5560 ha         1 29F       0.135000
     38 H15          3.3340    10.3760    -2.5500 ha         1 29F       0.134000
     39 H16          2.5470     8.3340    -1.4360 ha         1 29F       0.148000
@<TRIPOS>BOND
     1     1     4 1
     2     2    14 1
     3     2    15 1
     4     3    15 2
     5     4     6 1
     6     4     7 1
     7     4     8 1
     8     5    14 2
     9     5    21 1
    10     8     9 ar
    11     8    13 ar
    12     9    10 ar
    13    10    11 ar
    14    11    12 ar
    15    11    14 1
    16    12    13 ar
    17    15    16 1
    18    16    17 ar
    19    16    21 ar
    20    17    18 ar
    21    18    19 ar
    22    19    20 ar
    23    20    21 ar
    24     1    22 1
    25     1    23 1
    26     1    24 1
    27     2    25 1
    28     6    26 1
    29     6    27 1
    30     6    28 1
    31     7    29 1
    32     7    30 1
    33     7    31 1
    34     9    32 1
    35    10    33 1
    36    12    34 1
    37    13    35 1
    38    17    36 1
    39    18    37 1
    40    19    38 1
    41    20    39 1
@<TRIPOS>SUBSTRUCTURE
     1 29F         1 TEMP              0 ****  ****    0 ROOT
