@<TRIPOS>MOLECULE
29F
   39    41     1     0     0
SMALL
bcc


@<TRIPOS>ATOM
      1 C            0.0000     0.0000     0.0000 c3         1 29F       0.005567
      2 N            4.2350     4.5330    -3.8230 ns         1 29F      -0.019400
      3 O            5.4070     5.4840    -5.4800 o          1 29F      -0.666500
      4 C1           1.5290     0.0000     0.0000 c3         1 29F      -0.018700
      5 N1           3.1150     5.8690    -2.2430 nc         1 29F      -0.540100
      6 C2           2.0390     0.0000     1.4430 c3         1 29F       0.005567
      7 C3           2.0390    -1.2510    -0.7210 c3         1 29F       0.005567
      8 C4           2.0320     1.2300    -0.7110 ca         1 29F      -0.053300
      9 C5           1.6970     2.4850    -0.2360 ca         1 29F      -0.112000
     10 C6           2.1540     3.6150    -0.8820 ca         1 29F      -0.064500
     11 C7           2.9570     3.4900    -2.0170 ca         1 29F      -0.167900
     12 C8           3.2920     2.2200    -2.4910 ca         1 29F      -0.064500
     13 C9           2.8320     1.0980    -1.8330 ca         1 29F      -0.112000
     14 C10          3.4500     4.6960    -2.7140 cd         1 29F       0.363500
     15 C11          4.7080     5.6110    -4.4920 c          1 29F       0.621100
     16 C12          4.3450     6.9410    -3.9790 ca         1 29F      -0.218600
     17 C13          4.7830     8.1100    -4.5980 ca         1 29F      -0.015000
     18 C14          4.4140     9.3320    -4.0780 ca         1 29F      -0.131000
     19 C15          3.6140     9.4060    -2.9450 ca         1 29F      -0.063000
     20 C16          3.1710     8.2630    -2.3190 ca         1 29F      -0.100000
     21 C17          3.5290     7.0120    -2.8270 ca         1 29F       0.157400
     22 H           -0.3610    -0.9500     0.3750 hc         1 29F       0.008589
     23 HA          -0.3610     0.1510    -1.0100 hc         1 29F       0.008589
     24 HB          -0.3610     0.7990     0.6360 hc         1 29F       0.008589
     25 HN           4.4610     3.6120    -4.1410 hn         1 29F       0.190500
     26 H2           1.5600     0.7990     1.9950 hc         1 29F       0.008589
     27 H2A          3.1120     0.1510     1.4460 hc         1 29F       0.008589
     28 H2B          1.8070    -0.9500     1.9080 hc         1 29F       0.008589
     29 H3           1.6800    -1.2510    -1.7430 hc         1 29F       0.008589
     30 H3A          1.6770    -2.1350    -0.2100 hc         1 29F       0.008589
     31 H3B          3.1230    -1.2520    -0.7190 hc         1 29F       0.008589
     32 H5           1.0730     2.5800     0.6440 ha         1 29F       0.119500
     33 H6           1.8910     4.5980    -0.5090 ha         1 29F       0.115500
     34 H8           3.9160     2.1160    -3.3700 ha         1 29F       0.115500
     35 H9           3.0910     0.1120    -2.1990 ha         1 29F       0.119500
     36 H13          5.4070     8.0590    -5.4810 ha         1 29F       0.124000
     37 H14          4.7530    10.2430    -4.5560 ha         1 29F       0.107000
     38 H15          3.3340    10.3760    -2.5500 ha         1 29F       0.102000
     39 H16          2.5470     8.3340    -1.4360 ha         1 29F       0.118000
@<TRIPOS>BOND
     1     1     4 1   
     2     1    22 1   
     3     1    23 1   
     4     1    24 1   
     5     2    14 1   
     6     2    15 1   
     7     2    25 1   
     8     3    15 2   
     9     4     6 1   
    10     4     7 1   
    11     4     8 1   
    12     5    14 2   
    13     5    21 1   
    14     6    26 1   
    15     6    27 1   
    16     6    28 1   
    17     7    29 1   
    18     7    30 1   
    19     7    31 1   
    20     8     9 ar  
    21     8    13 ar  
    22     9    10 ar  
    23     9    32 1   
    24    10    11 ar  
    25    10    33 1   
    26    11    12 ar  
    27    11    14 1   
    28    12    13 ar  
    29    12    34 1   
    30    13    35 1   
    31    15    16 1   
    32    16    17 ar  
    33    16    21 ar  
    34    17    18 ar  
    35    17    36 1   
    36    18    19 ar  
    37    18    37 1   
    38    19    20 ar  
    39    19    38 1   
    40    20    21 ar  
    41    20    39 1   
@<TRIPOS>SUBSTRUCTURE
     1 29F         1 TEMP              0 ****  ****    0 ROOT
