@<TRIPOS>MOLECULE
molecule
   18    19     1     0     0
SMALL
bcc


@<TRIPOS>ATOM
      1 NAB          0.0000     0.0000     0.0000 nv         1 29G      -1.003500
      2 CAJ          1.3770     0.0000     0.0000 ca         1 29G       0.780200
      3 NAG          2.0590     0.0000     1.1370 nb         1 29G      -0.838000
      4 C5           2.1040    -0.0050    -1.2150 ca         1 29G      -0.527900
      5 C6           1.4890    -0.0110    -2.4680 ca         1 29G       0.519200
      6 N1           2.2570    -0.0160    -3.5430 nb         1 29G      -0.767000
      7 C2           3.5770    -0.0150    -3.4500 ca         1 29G       0.717900
      8 N3           4.2110    -0.0100    -2.3000 nb         1 29G      -0.719000
      9 C4           3.5230    -0.0050    -1.1540 ca         1 29G       0.768300
     10 NAH          4.1140    -0.0010     0.0430 nb         1 29G      -0.768000
     11 CAI          3.3880     0.0000     1.1470 ca         1 29G       1.006900
     12 NAA          4.0380     0.0000     2.3660 nv         1 29G      -1.056500
     13 H1          -0.5000    -0.4160     0.7610 hn         1 29G       0.448800
     14 H2          -0.5000     0.4540    -0.7390 hn         1 29G       0.448800
     15 H3           0.4090    -0.0110    -2.5570 h4         1 29G       0.023100
     16 H4           4.1610    -0.0190    -4.3630 h5         1 29G       0.064100
     17 H5           4.4330    -0.8470     2.7230 hn         1 29G       0.449800
     18 H6           4.1240     0.8510     2.8870 hn         1 29G       0.449800
@<TRIPOS>BOND
     1    12    11 1
     2    11     3 ar
     3    11    10 ar
     4     3     2 ar
     5    10     9 ar
     6     2     1 1
     7     2     4 ar
     8     9     4 ar
     9     9     8 ar
    10     4     5 ar
    11     8     7 ar
    12     5     6 ar
    13     7     6 ar
    14     1    13 1
    15     1    14 1
    16     5    15 1
    17     7    16 1
    18    12    17 1
    19    12    18 1
@<TRIPOS>SUBSTRUCTURE
     1 29G         1 TEMP              0 ****  ****    0 ROOT
