@<TRIPOS>MOLECULE
29G
   18    19     1     0     0
SMALL
bcc


@<TRIPOS>ATOM
      1 NAB          0.0000     0.0000     0.0000 nv         1 29G      -0.509500
      2 CAJ          1.3770     0.0000     0.0000 ca         1 29G       0.579200
      3 NAG          2.0590     0.0000     1.1370 nb         1 29G      -0.725000
      4 C5           2.1040    -0.0050    -1.2150 ca         1 29G      -0.511900
      5 C6           1.4890    -0.0110    -2.4680 ca         1 29G       0.499200
      6 N1           2.2570    -0.0160    -3.5430 nb         1 29G      -0.657000
      7 C2           3.5770    -0.0150    -3.4500 ca         1 29G       0.660900
      8 N3           4.2110    -0.0100    -2.3000 nb         1 29G      -0.608000
      9 C4           3.5230    -0.0050    -1.1540 ca         1 29G       0.678300
     10 NAH          4.1140    -0.0010     0.0430 nb         1 29G      -0.660000
     11 CAI          3.3880     0.0000     1.1470 ca         1 29G       0.784900
     12 NAA          4.0380     0.0000     2.3660 nv         1 29G      -0.631500
     13 H1          -0.5000    -0.4160     0.7610 hn         1 29G       0.277800
     14 H2          -0.5000     0.4540    -0.7390 hn         1 29G       0.277800
     15 H3           0.4090    -0.0110    -2.5570 h4         1 29G      -0.020900
     16 H4           4.1610    -0.0190    -4.3630 h5         1 29G      -0.000900
     17 H5           4.4330    -0.8470     2.7230 hn         1 29G       0.282800
     18 H6           4.1240     0.8510     2.8870 hn         1 29G       0.282800
@<TRIPOS>BOND
     1     1     2 1   
     2     1    13 1   
     3     1    14 1   
     4     2     3 ar  
     5     2     4 ar  
     6     3    11 ar  
     7     4     5 ar  
     8     4     9 ar  
     9     5     6 ar  
    10     5    15 1   
    11     6     7 ar  
    12     7     8 ar  
    13     7    16 1   
    14     8     9 ar  
    15     9    10 ar  
    16    10    11 ar  
    17    11    12 1   
    18    12    17 1   
    19    12    18 1   
@<TRIPOS>SUBSTRUCTURE
     1 29G         1 TEMP              0 ****  ****    0 ROOT
