@<TRIPOS>MOLECULE
29H
   18    19     1     0     0
SMALL
bcc


@<TRIPOS>ATOM
      1 NAH          0.0000     0.0000     0.0000 ns         1 29H      -0.010400
      2 CAJ          1.3540     0.0000     0.0000 c          1 29H       0.630100
      3 OAB          1.9880     0.0000    -1.0390 o          1 29H      -0.564500
      4 C5           2.0270     0.0000     1.3040 ca         1 29H      -0.409200
      5 C6           3.4120     0.0010     1.4370 ca         1 29H       0.538200
      6 N1           3.9250     0.0020     2.6580 nb         1 29H      -0.572000
      7 C2           3.1520     0.0020     3.7300 ca         1 29H       0.680900
      8 N3           1.8380     0.0010     3.6610 nb         1 29H      -0.553000
      9 C4           1.2280     0.0010     2.4750 ca         1 29H       0.541300
     10 NAG         -0.1080     0.0010     2.3520 nc         1 29H      -0.443700
     11 CAI         -0.6900     0.0060     1.1750 cd         1 29H       0.044800
     12 NAA         -2.0590     0.0060     1.1270 nz         1 29H       0.196400
     13 H1          -0.4970     0.0040    -0.8690 hn         1 29H       0.193500
     14 H2           4.0540     0.0010     0.5650 h4         1 29H       0.024100
     15 H3           3.6200     0.0030     4.7070 h5         1 29H       0.025100
     16 H4          -2.4250     0.0130     2.0580 hn         1 29H       0.226133
     17 H5          -2.3760    -0.8150     0.6500 hn         1 29H       0.226133
     18 HAA3        -2.3750     0.8190     0.6370 hn         1 29H       0.226133
@<TRIPOS>BOND
     1     1     2 1   
     2     1    11 1   
     3     1    13 1   
     4     2     3 2   
     5     2     4 1   
     6     4     5 ar  
     7     4     9 ar  
     8     5     6 ar  
     9     5    14 1   
    10     6     7 ar  
    11     7     8 ar  
    12     7    15 1   
    13     8     9 ar  
    14     9    10 1   
    15    10    11 2   
    16    11    12 1   
    17    12    16 1   
    18    12    17 1   
    19    12    18 1   
@<TRIPOS>SUBSTRUCTURE
     1 29H         1 TEMP              0 ****  ****    0 ROOT
