@<TRIPOS>MOLECULE
molecule
   18    19     1     0     0
SMALL
bcc


@<TRIPOS>ATOM
      1 NAH          0.0000     0.0000     0.0000 ns         1 29H      -0.477400
      2 CAJ          1.3540     0.0000     0.0000 c          1 29H       0.721100
      3 OAB          1.9880     0.0000    -1.0390 o          1 29H      -0.530500
      4 C5           2.0270     0.0000     1.3040 ca         1 29H      -0.431200
      5 C6           3.4120     0.0010     1.4370 ca         1 29H       0.554200
      6 N1           3.9250     0.0020     2.6580 nb         1 29H      -0.700000
      7 C2           3.1520     0.0020     3.7300 ca         1 29H       0.745900
      8 N3           1.8380     0.0010     3.6610 nb         1 29H      -0.688000
      9 C4           1.2280     0.0010     2.4750 ca         1 29H       0.681300
     10 NAG         -0.1080     0.0010     2.3520 nc         1 29H      -0.634700
     11 CAI         -0.6900     0.0060     1.1750 cd         1 29H       0.520800
     12 NAA         -2.0590     0.0060     1.1270 nz         1 29H      -0.744600
     13 H1          -0.4970     0.0040    -0.8690 hn         1 29H       0.350500
     14 H2           4.0540     0.0010     0.5650 h4         1 29H       0.076100
     15 H3           3.6200     0.0030     4.7070 h5         1 29H       0.097100
     16 H4          -2.4250     0.0130     2.0580 hn         1 29H       0.485467
     17 H5          -2.3760    -0.8150     0.6500 hn         1 29H       0.485467
     18 HAA3        -2.3750     0.8190     0.6370 hn         1 29H       0.485467
@<TRIPOS>BOND
     1    12    11 1
     2    11     1 1
     3    11    10 2
     4     1     2 1
     5    10     9 1
     6     2     3 2
     7     2     4 1
     8     9     4 ar
     9     9     8 ar
    10     4     5 ar
    11     8     7 ar
    12     5     6 ar
    13     7     6 ar
    14     1    13 1
    15     5    14 1
    16     7    15 1
    17    12    16 1
    18    12    17 1
    19    18    12 1
@<TRIPOS>SUBSTRUCTURE
     1 29H         1 TEMP              0 ****  ****    0 ROOT
