@<TRIPOS>MOLECULE
29J
   44    45     1     0     0
SMALL
bcc


@<TRIPOS>ATOM
      1 O1           1.4290     0.0000     0.0000 oh         1 29J      -0.587800
      2 C5           0.0000     0.0000     0.0000 c3         1 29J       0.179800
      3 C           -0.5100     0.0000     1.4420 c3         1 29J      -0.056400
      4 C4          -0.5100    -1.2500    -0.7210 c3         1 29J      -0.056400
      5 C3          -0.0000    -2.4990     0.0000 c3         1 29J      -0.024400
      6 C2          -0.5100    -2.4990     1.4430 c3         1 29J      -0.025400
      7 C1           0.0000    -1.2490     2.1640 c3         1 29J      -0.024400
      8 C6          -0.5100     1.2490    -0.7210 c3         1 29J      -0.011400
      9 C13          0.1110     2.4940    -0.0850 c3         1 29J       0.138800
     10 N           -0.4220     3.6960    -0.7410 n3         1 29J      -0.537600
     11 C15         -1.7920     3.9760    -0.2950 c3         1 29J       0.181600
     12 C14          0.4540     4.8540    -0.5110 c3         1 29J       0.181600
     13 C7          -0.1230     1.1830    -2.1760 ca         1 29J      -0.074300
     14 C12         -1.1010     1.0560    -3.1460 ca         1 29J      -0.073500
     15 C11         -0.7490     0.9940    -4.4800 ca         1 29J      -0.140000
     16 C10          0.5870     1.0600    -4.8470 ca         1 29J       0.116100
     17 O            0.9360     0.9990    -6.1590 oh         1 29J      -0.503100
     18 C9           1.5660     1.1860    -3.8730 ca         1 29J      -0.140000
     19 C8           1.2090     1.2540    -2.5400 ca         1 29J      -0.073500
     20 H1           1.7440     0.1850     0.8690 ho         1 29J       0.394000
     21 H2          -1.5930    -0.0020     1.4410 hc         1 29J       0.028450
     22 H3          -0.1460     0.8840     1.9530 hc         1 29J       0.028450
     23 H4          -0.1460    -1.2500    -1.7410 hc         1 29J       0.028450
     24 H5          -1.5930    -1.2500    -0.7180 hc         1 29J       0.028450
     25 H6          -0.3640    -3.3820    -0.5100 hc         1 29J       0.017450
     26 H7           1.0830    -2.4970     0.0010 hc         1 29J       0.017450
     27 H8          -1.5930    -2.4970     1.4420 hc         1 29J       0.013200
     28 H9          -0.1460    -3.3820     1.9530 hc         1 29J       0.013200
     29 H10         -0.3640    -1.2490     3.1840 hc         1 29J       0.017450
     30 H11          1.0830    -1.2490     2.1610 hc         1 29J       0.017450
     31 H12         -1.5890     1.3000    -0.6370 hc         1 29J       0.041700
     32 H13         -0.1330     2.5210     0.9700 h1         1 29J       0.019200
     33 H14          1.1870     2.4640    -0.2070 h1         1 29J       0.019200
     34 H16         -2.4200     3.1160    -0.4920 h1         1 29J       0.000533
     35 H17         -2.1780     4.8350    -0.8310 h1         1 29J       0.000533
     36 H18         -1.7900     4.1860     0.7680 h1         1 29J       0.000533
     37 H19          0.0290     5.7280    -0.9890 h1         1 29J       0.000533
     38 H20          0.5440     5.0320     0.5540 h1         1 29J       0.000533
     39 H21          1.4340     4.6540    -0.9280 h1         1 29J       0.000533
     40 H22         -2.1450     1.0050    -2.8580 ha         1 29J       0.112500
     41 H23         -1.5160     0.8950    -5.2390 ha         1 29J       0.110500
     42 H24          0.9130     1.8660    -6.5300 ho         1 29J       0.399000
     43 H25          2.6100     1.2400    -4.1580 ha         1 29J       0.110500
     44 H26          1.9740     1.3530    -1.7790 ha         1 29J       0.112500
@<TRIPOS>BOND
     1     1     2 1   
     2     1    20 1   
     3     2     3 1   
     4     2     4 1   
     5     2     8 1   
     6     3     7 1   
     7     3    21 1   
     8     3    22 1   
     9     4     5 1   
    10     4    23 1   
    11     4    24 1   
    12     5     6 1   
    13     5    25 1   
    14     5    26 1   
    15     6     7 1   
    16     6    27 1   
    17     6    28 1   
    18     7    29 1   
    19     7    30 1   
    20     8     9 1   
    21     8    13 1   
    22     8    31 1   
    23     9    10 1   
    24     9    32 1   
    25     9    33 1   
    26    10    11 1   
    27    10    12 1   
    28    11    34 1   
    29    11    35 1   
    30    11    36 1   
    31    12    37 1   
    32    12    38 1   
    33    12    39 1   
    34    13    14 ar  
    35    13    19 ar  
    36    14    15 ar  
    37    14    40 1   
    38    15    16 ar  
    39    15    41 1   
    40    16    17 1   
    41    16    18 ar  
    42    17    42 1   
    43    18    19 ar  
    44    18    43 1   
    45    19    44 1   
@<TRIPOS>SUBSTRUCTURE
     1 29J         1 TEMP              0 ****  ****    0 ROOT
