@<TRIPOS>MOLECULE
molecule
   44    45     1     0     0
SMALL
bcc


@<TRIPOS>ATOM
      1 O1           1.4290     0.0000     0.0000 oh         1 29J      -0.601800
      2 C5           0.0000     0.0000     0.0000 c3         1 29J       0.160800
      3 C           -0.5100     0.0000     1.4420 c3         1 29J      -0.094900
      4 C4          -0.5100    -1.2500    -0.7210 c3         1 29J      -0.094900
      5 C3          -0.0000    -2.4990     0.0000 c3         1 29J      -0.080400
      6 C2          -0.5100    -2.4990     1.4430 c3         1 29J      -0.081400
      7 C1           0.0000    -1.2490     2.1640 c3         1 29J      -0.080400
      8 C6          -0.5100     1.2490    -0.7210 c3         1 29J      -0.031400
      9 C13          0.1110     2.4940    -0.0850 c3         1 29J       0.163800
     10 N           -0.4220     3.6960    -0.7410 n3         1 29J      -0.725600
     11 C15         -1.7920     3.9760    -0.2950 c3         1 29J       0.151600
     12 C14          0.4540     4.8540    -0.5110 c3         1 29J       0.151600
     13 C7          -0.1230     1.1830    -2.1760 ca         1 29J      -0.059300
     14 C12         -1.1010     1.0560    -3.1460 ca         1 29J      -0.101500
     15 C11         -0.7490     0.9940    -4.4800 ca         1 29J      -0.155000
     16 C10          0.5870     1.0600    -4.8470 ca         1 29J       0.097100
     17 O            0.9360     0.9990    -6.1590 oh         1 29J      -0.525100
     18 C9           1.5660     1.1860    -3.8730 ca         1 29J      -0.155000
     19 C8           1.2090     1.2540    -2.5400 ca         1 29J      -0.101500
     20 H1           1.7440     0.1850     0.8690 ho         1 29J       0.401000
     21 H2          -1.5930    -0.0020     1.4410 hc         1 29J       0.053200
     22 H3          -0.1460     0.8840     1.9530 hc         1 29J       0.053200
     23 H4          -0.1460    -1.2500    -1.7410 hc         1 29J       0.053200
     24 H5          -1.5930    -1.2500    -0.7180 hc         1 29J       0.053200
     25 H6          -0.3640    -3.3820    -0.5100 hc         1 29J       0.046200
     26 H7           1.0830    -2.4970     0.0010 hc         1 29J       0.046200
     27 H8          -1.5930    -2.4970     1.4420 hc         1 29J       0.041200
     28 H9          -0.1460    -3.3820     1.9530 hc         1 29J       0.041200
     29 H10         -0.3640    -1.2490     3.1840 hc         1 29J       0.046200
     30 H11          1.0830    -1.2490     2.1610 hc         1 29J       0.046200
     31 H12         -1.5890     1.3000    -0.6370 hc         1 29J       0.061700
     32 H13         -0.1330     2.5210     0.9700 h1         1 29J       0.038200
     33 H14          1.1870     2.4640    -0.2070 h1         1 29J       0.038200
     34 H16         -2.4200     3.1160    -0.4920 h1         1 29J       0.031033
     35 H17         -2.1780     4.8350    -0.8310 h1         1 29J       0.031033
     36 H18         -1.7900     4.1860     0.7680 h1         1 29J       0.031033
     37 H19          0.0290     5.7280    -0.9890 h1         1 29J       0.031033
     38 H20          0.5440     5.0320     0.5540 h1         1 29J       0.031033
     39 H21          1.4340     4.6540    -0.9280 h1         1 29J       0.031033
     40 H22         -2.1450     1.0050    -2.8580 ha         1 29J       0.136000
     41 H23         -1.5160     0.8950    -5.2390 ha         1 29J       0.136000
     42 H24          0.9130     1.8660    -6.5300 ho         1 29J       0.415000
     43 H25          2.6100     1.2400    -4.1580 ha         1 29J       0.136000
     44 H26          1.9740     1.3530    -1.7790 ha         1 29J       0.136000
@<TRIPOS>BOND
     1    18    19 ar  
     2    18    16 ar  
     3    17    16 1   
     4     6     7 1   
     5     6     5 1   
     6     7     3 1   
     7    19    13 ar  
     8    16    15 ar  
     9     3     2 1   
    10     5     4 1   
    11    13     8 1   
    12    13    14 ar  
    13     4     2 1   
    14    15    14 ar  
    15     2     8 1   
    16     2     1 1   
    17     8     9 1   
    18    12    10 1   
    19     9    10 1   
    20    10    11 1   
    21     1    20 1   
    22     3    21 1   
    23     3    22 1   
    24     4    23 1   
    25     4    24 1   
    26     5    25 1   
    27     5    26 1   
    28     6    27 1   
    29     6    28 1   
    30     7    29 1   
    31     7    30 1   
    32     8    31 1   
    33     9    32 1   
    34     9    33 1   
    35    11    34 1   
    36    11    35 1   
    37    11    36 1   
    38    12    37 1   
    39    12    38 1   
    40    12    39 1   
    41    14    40 1   
    42    15    41 1   
    43    17    42 1   
    44    18    43 1   
    45    19    44 1   
@<TRIPOS>SUBSTRUCTURE
     1 29J         1 TEMP              0 ****  ****    0 ROOT
