@<TRIPOS>MOLECULE
molecule
   64    69     1     0     0
SMALL
bcc


@<TRIPOS>ATOM
      1 C10          0.0000     0.0000     0.0000 ca         1 29K      -0.138600
      2 C13         -2.7450    -0.0010     0.5750 ca         1 29K      -0.001200
      3 C15         -2.5620     0.0060     2.8720 cp         1 29K      -0.077000
      4 C17         -4.8860     0.0080     3.5180 ca         1 29K      -0.165000
      5 C20         -2.1930     0.0000     4.2160 ca         1 29K      -0.070000
      6 C24         -7.0050    -1.4450    -0.6780 c3         1 29K      -0.113400
      7 C28         -2.1380    -0.0040    -3.0210 ca         1 29K      -0.004200
      8 C02          1.4710     0.0000     0.0000 c          1 29K       0.722100
      9 N03          1.9400     0.0000     1.2590 ns         1 29K      -0.573900
     10 C04          0.7990    -0.0000     2.1830 c3         1 29K       0.130000
     11 C05          0.8310     1.2540     3.0580 c3         1 29K      -0.104400
     12 C06          0.9120     2.4950     2.1680 c3         1 29K      -0.039700
     13 C07         -0.4050     2.6650     1.4070 c3         1 29K      -0.095600
     14 C08          1.1630     3.7300     3.0360 c3         1 29K      -0.095600
     15 C09         -0.4390     0.0060     1.3200 ca         1 29K      -0.047300
     16 C11         -0.9500     0.0000    -1.0470 cp         1 29K       0.014000
     17 C12         -2.3160    -0.0000    -0.7590 ca         1 29K      -0.042200
     18 C14         -1.7980     0.0080     1.6100 cp         1 29K      -0.050000
     19 C16         -3.9180     0.0100     2.5170 ca         1 29K      -0.005200
     20 C18         -4.5070     0.0030     4.8430 ca         1 29K      -0.089000
     21 C19         -3.1650    -0.0020     5.1930 ca         1 29K      -0.148000
     22 N21         -4.0070    -0.0030     1.1360 na         1 29K      -0.087300
     23 C23         -5.6950    -1.4450     0.1130 c3         1 29K      -0.109400
     24 C25         -7.4400    -2.8870    -0.9430 c3         1 29K       0.093800
     25 N26         -8.6970    -2.8860    -1.7040 nz         1 29K      -0.811600
     26 N27         -3.0160    -0.0100    -1.9540 na         1 29K      -0.205300
     27 C29         -2.3340    -0.0080    -4.3990 ca         1 29K      -0.179000
     28 C30         -1.2500     0.0000    -5.2500 ca         1 29K      -0.080000
     29 C31          0.0430     0.0130    -4.7460 ca         1 29K      -0.162000
     30 C32          0.2590     0.0020    -3.3870 ca         1 29K      -0.044000
     31 C33         -0.8290     0.0010    -2.5130 cp         1 29K      -0.090000
     32 H1          -5.9370     0.0120     3.2550 ha         1 29K       0.117000
     33 H2          -1.1450    -0.0030     4.4920 ha         1 29K       0.142000
     34 H3          -6.0270     0.5070     0.9500 h1         1 29K       0.062200
     35 H4          -5.1120     0.5100    -0.5640 h1         1 29K       0.062200
     36 H5          -6.8560    -0.9330    -1.6220 hc         1 29K       0.064200
     37 H6          -7.7710    -0.9350    -0.1080 hc         1 29K       0.064200
     38 H7           2.9050    -0.0010     1.5230 hn         1 29K       0.358500
     39 H8           0.8190    -0.8920     2.7980 h1         1 29K       0.067700
     40 H9          -0.1780     1.3540     3.4390 hc         1 29K       0.055200
     41 H10          1.3120     0.7340     3.8780 hc         1 29K       0.055200
     42 H11          1.7250     2.3800     1.4610 hc         1 29K       0.060700
     43 H12         -1.2210     2.2790     2.0070 hc         1 29K       0.039867
     44 H13         -0.5720     3.7160     1.2050 hc         1 29K       0.039867
     45 H14         -0.3550     2.1200     0.4720 hc         1 29K       0.039867
     46 H15          0.2770     3.9460     3.6220 hc         1 29K       0.039867
     47 H16          1.3920     4.5780     2.4020 hc         1 29K       0.039867
     48 H17          1.9970     3.5410     3.7010 hc         1 29K       0.039867
     49 H18         -5.2640     0.0010     5.6180 ha         1 29K       0.139000
     50 H19         -2.8800    -0.0060     6.2380 ha         1 29K       0.144000
     51 H20         -5.8430    -1.9570     1.0560 hc         1 29K       0.074200
     52 H21         -4.9280    -1.9540    -0.4580 hc         1 29K       0.074200
     53 H22         -7.5890    -3.3990    -0.0000 hx         1 29K       0.116700
     54 H23         -6.6730    -3.3970    -1.5140 hx         1 29K       0.116700
     55 H24         -9.4060    -2.4160    -1.1760 hn         1 29K       0.458467
     56 H25         -8.9820    -3.8300    -1.8790 hn         1 29K       0.458467
     57 H27         -4.0140    -0.0180    -2.0340 hn         1 29K       0.275700
     58 H28         -3.3390    -0.0180    -4.8030 ha         1 29K       0.115000
     59 H29         -1.4090     0.0090    -6.3210 ha         1 29K       0.136000
     60 H30          0.8860     0.0190    -5.4260 ha         1 29K       0.144000
     61 H31          1.2690     0.0120    -2.9970 ha         1 29K       0.179000
     62 C22         -5.2600    -0.0020     0.3790 c3         1 29K       0.066300
     63 O01          2.1640     0.0010    -1.0000 o          1 29K      -0.634500
     64 H263        -8.5600    -2.4130    -2.5750 hn         1 29K       0.458467
@<TRIPOS>BOND
     1    13    12 1   
     2    14    12 1   
     3    12    11 1   
     4    11    10 1   
     5     9    10 1   
     6     9     8 1   
     7    10    15 1   
     8    21     5 ar  
     9    21    20 ar  
    10     5     3 ar  
    11     8    63 2   
    12     8     1 1   
    13    15     1 ar  
    14    15    18 ar  
    15     3    18 1   
    16     3    19 ar  
    17    20     4 ar  
    18     1    16 ar  
    19    18     2 ar  
    20     4    19 ar  
    21    19    22 1   
    22    16    17 ar  
    23    16    31 1   
    24     2    22 1   
    25     2    17 ar  
    26    22    62 1   
    27    17    26 1   
    28    30    31 ar  
    29    30    29 ar  
    30    31     7 ar  
    31    29    28 ar  
    32    62    23 1   
    33    26     7 1   
    34     7    27 ar  
    35    28    27 ar  
    36    23     6 1   
    37    24     6 1   
    38    24    25 1   
    39     4    32 1   
    40     5    33 1   
    41    62    34 1   
    42    62    35 1   
    43     6    36 1   
    44     6    37 1   
    45     9    38 1   
    46    10    39 1   
    47    11    40 1   
    48    11    41 1   
    49    12    42 1   
    50    13    43 1   
    51    13    44 1   
    52    13    45 1   
    53    14    46 1   
    54    14    47 1   
    55    14    48 1   
    56    20    49 1   
    57    21    50 1   
    58    23    51 1   
    59    23    52 1   
    60    24    53 1   
    61    24    54 1   
    62    25    55 1   
    63    25    56 1   
    64    26    57 1   
    65    27    58 1   
    66    28    59 1   
    67    29    60 1   
    68    30    61 1   
    69    64    25 1   
@<TRIPOS>SUBSTRUCTURE
     1 29K         1 TEMP              0 ****  ****    0 ROOT
