@<TRIPOS>MOLECULE
29K
   64    69     1     0     0
SMALL
bcc


@<TRIPOS>ATOM
      1 C10          0.0000     0.0000     0.0000 ca         1 29K      -0.135600
      2 C13         -2.7450    -0.0010     0.5750 ca         1 29K      -0.158200
      3 C15         -2.5620     0.0060     2.8720 cp         1 29K      -0.071000
      4 C17         -4.8860     0.0080     3.5180 ca         1 29K      -0.130000
      5 C20         -2.1930     0.0000     4.2160 ca         1 29K      -0.042000
      6 C24         -7.0050    -1.4450    -0.6780 c3         1 29K      -0.032400
      7 C28         -2.1380    -0.0040    -3.0210 ca         1 29K      -0.186200
      8 C02          1.4710     0.0000     0.0000 c          1 29K       0.646100
      9 N03          1.9400     0.0000     1.2590 ns         1 29K      -0.178900
     10 C04          0.7990    -0.0000     2.1830 c3         1 29K       0.049000
     11 C05          0.8310     1.2540     3.0580 c3         1 29K      -0.075400
     12 C06          0.9120     2.4950     2.1680 c3         1 29K      -0.008700
     13 C07         -0.4050     2.6650     1.4070 c3         1 29K      -0.023600
     14 C08          1.1630     3.7300     3.0360 c3         1 29K      -0.023600
     15 C09         -0.4390     0.0060     1.3200 ca         1 29K      -0.048300
     16 C11         -0.9500     0.0000    -1.0470 cp         1 29K       0.026000
     17 C12         -2.3160    -0.0000    -0.7590 ca         1 29K      -0.211200
     18 C14         -1.7980     0.0080     1.6100 cp         1 29K      -0.039000
     19 C16         -3.9180     0.0100     2.5170 ca         1 29K      -0.174200
     20 C18         -4.5070     0.0030     4.8430 ca         1 29K      -0.062000
     21 C19         -3.1650    -0.0020     5.1930 ca         1 29K      -0.119000
     22 N21         -4.0070    -0.0030     1.1360 na         1 29K       0.359700
     23 C23         -5.6950    -1.4450     0.1130 c3         1 29K      -0.051400
     24 C25         -7.4400    -2.8870    -0.9430 c3         1 29K      -0.052200
     25 N26         -8.6970    -2.8860    -1.7040 nz         1 29K       0.086400
     26 N27         -3.0160    -0.0100    -1.9540 na         1 29K       0.299700
     27 C29         -2.3340    -0.0080    -4.3990 ca         1 29K      -0.143000
     28 C30         -1.2500     0.0000    -5.2500 ca         1 29K      -0.055000
     29 C31          0.0430     0.0130    -4.7460 ca         1 29K      -0.133000
     30 C32          0.2590     0.0020    -3.3870 ca         1 29K      -0.019000
     31 C33         -0.8290     0.0010    -2.5130 cp         1 29K      -0.082000
     32 H1          -5.9370     0.0120     3.2550 ha         1 29K       0.093000
     33 H2          -1.1450    -0.0030     4.4920 ha         1 29K       0.114000
     34 H3          -6.0270     0.5070     0.9500 h1         1 29K       0.035200
     35 H4          -5.1120     0.5100    -0.5640 h1         1 29K       0.035200
     36 H5          -6.8560    -0.9330    -1.6220 hc         1 29K       0.033700
     37 H6          -7.7710    -0.9350    -0.1080 hc         1 29K       0.033700
     38 H7           2.9050    -0.0010     1.5230 hn         1 29K       0.208500
     39 H8           0.8190    -0.8920     2.7980 h1         1 29K       0.038700
     40 H9          -0.1780     1.3540     3.4390 hc         1 29K       0.036700
     41 H10          1.3120     0.7340     3.8780 hc         1 29K       0.036700
     42 H11          1.7250     2.3800     1.4610 hc         1 29K       0.030700
     43 H12         -1.2210     2.2790     2.0070 hc         1 29K       0.013367
     44 H13         -0.5720     3.7160     1.2050 hc         1 29K       0.013367
     45 H14         -0.3550     2.1200     0.4720 hc         1 29K       0.013367
     46 H15          0.2770     3.9460     3.6220 hc         1 29K       0.013367
     47 H16          1.3920     4.5780     2.4020 hc         1 29K       0.013367
     48 H17          1.9970     3.5410     3.7010 hc         1 29K       0.013367
     49 H18         -5.2640     0.0010     5.6180 ha         1 29K       0.106000
     50 H19         -2.8800    -0.0060     6.2380 ha         1 29K       0.114000
     51 H20         -5.8430    -1.9570     1.0560 hc         1 29K       0.041200
     52 H21         -4.9280    -1.9540    -0.4580 hc         1 29K       0.041200
     53 H22         -7.5890    -3.3990    -0.0000 hx         1 29K       0.088700
     54 H23         -6.6730    -3.3970    -1.5140 hx         1 29K       0.088700
     55 H24         -9.4060    -2.4160    -1.1760 hn         1 29K       0.224467
     56 H25         -8.9820    -3.8300    -1.8790 hn         1 29K       0.224467
     57 H27         -4.0140    -0.0180    -2.0340 hn         1 29K       0.101700
     58 H28         -3.3390    -0.0180    -4.8030 ha         1 29K       0.091000
     59 H29         -1.4090     0.0090    -6.3210 ha         1 29K       0.103000
     60 H30          0.8860     0.0190    -5.4260 ha         1 29K       0.114000
     61 H31          1.2690     0.0120    -2.9970 ha         1 29K       0.151000
     62 C22         -5.2600    -0.0020     0.3790 c3         1 29K      -0.026700
     63 O01          2.1640     0.0010    -1.0000 o          1 29K      -0.676500
     64 H263        -8.5600    -2.4130    -2.5750 hn         1 29K       0.224467
@<TRIPOS>BOND
     1     1     8 1   
     2     1    15 ar  
     3     1    16 ar  
     4     2    17 ar  
     5     2    18 ar  
     6     2    22 1   
     7     3     5 ar  
     8     3    18 1   
     9     3    19 ar  
    10     4    19 ar  
    11     4    20 ar  
    12     4    32 1   
    13     5    21 ar  
    14     5    33 1   
    15     6    23 1   
    16     6    24 1   
    17     6    36 1   
    18     6    37 1   
    19     7    26 1   
    20     7    27 ar  
    21     7    31 ar  
    22     8     9 1   
    23     8    63 2   
    24     9    10 1   
    25     9    38 1   
    26    10    11 1   
    27    10    15 1   
    28    10    39 1   
    29    11    12 1   
    30    11    40 1   
    31    11    41 1   
    32    12    13 1   
    33    12    14 1   
    34    12    42 1   
    35    13    43 1   
    36    13    44 1   
    37    13    45 1   
    38    14    46 1   
    39    14    47 1   
    40    14    48 1   
    41    15    18 ar  
    42    16    17 ar  
    43    16    31 1   
    44    17    26 1   
    45    19    22 1   
    46    20    21 ar  
    47    20    49 1   
    48    21    50 1   
    49    22    62 1   
    50    23    51 1   
    51    23    52 1   
    52    23    62 1   
    53    24    25 1   
    54    24    53 1   
    55    24    54 1   
    56    25    55 1   
    57    25    56 1   
    58    25    64 1   
    59    26    57 1   
    60    27    28 ar  
    61    27    58 1   
    62    28    29 ar  
    63    28    59 1   
    64    29    30 ar  
    65    29    60 1   
    66    30    31 ar  
    67    30    61 1   
    68    34    62 1   
    69    35    62 1   
@<TRIPOS>SUBSTRUCTURE
     1 29K         1 TEMP              0 ****  ****    0 ROOT
