@<TRIPOS>MOLECULE
molecule
   43    46     1     0     0
SMALL
bcc


@<TRIPOS>ATOM
      1 C1           0.0000     0.0000     0.0000 ca         1 29L      -0.128000
      2 C2           1.3740     0.0000     0.0000 ca         1 29L      -0.081000
      3 C3           2.0820     0.0000     1.2120 ca         1 29L      -0.140900
      4 C4           1.3810     0.0000     2.4170 ca         1 29L      -0.067300
      5 C5           0.0010    -0.0000     2.4140 ca         1 29L      -0.124000
      6 C6          -0.6980     0.0010     1.2090 ca         1 29L       0.017000
      7 C7          -2.1800     0.0060     1.2100 cc         1 29L      -0.256300
      8 C8          -2.9900    -0.8300     1.9210 cd         1 29L      -0.090300
      9 N9          -4.2670    -0.4990     1.6470 na         1 29L       0.071400
     10 N10         -4.2640     0.5710     0.7440 nd         1 29L      -0.501800
     11 C11         -3.0170     0.8880     0.4780 cc         1 29L       0.405800
     12 C12         -2.5630     1.9700    -0.4280 ca         1 29L      -0.081500
     13 C13         -1.4030     2.6990    -0.1530 ca         1 29L      -0.232300
     14 C14         -1.0180     3.6970    -1.0230 ca         1 29L       0.414200
     15 N15         -1.7290     3.9680    -2.1020 nb         1 29L      -0.688000
     16 C16         -2.8300     3.3040    -2.3980 ca         1 29L       0.414200
     17 C17         -3.2820     2.2860    -1.5850 ca         1 29L      -0.232300
     18 C18         -5.4580    -1.1490     2.2010 c3         1 29L       0.076300
     19 C19         -6.3500    -0.0980     2.8640 c3         1 29L       0.122400
     20 O20         -7.5120    -0.7320     3.4050 oh         1 29L      -0.613800
     21 C21          2.3560     0.0010     3.5700 c3         1 29L      -0.039100
     22 C22          3.7600     0.0010     2.9500 c3         1 29L      -0.149700
     23 C23          3.5370     0.0000     1.4570 ce         1 29L       0.437900
     24 N24          4.4600     0.0010     0.5510 n2         1 29L      -0.436200
     25 O25          5.8250     0.0010     0.9300 oh         1 29L      -0.389500
     26 H1          -0.5420     0.0010    -0.9380 ha         1 29L       0.145000
     27 H2           1.9140    -0.0010    -0.9390 ha         1 29L       0.146000
     28 H3          -0.5410     0.0010     3.3530 ha         1 29L       0.134000
     29 H4          -2.6640    -1.6200     2.5860 h4         1 29L       0.178000
     30 H5          -0.8140     2.4830     0.7300 ha         1 29L       0.151000
     31 H6          -0.1200     4.2680    -0.8180 h4         1 29L       0.025100
     32 H7          -3.3820     3.5570    -3.2950 h4         1 29L       0.025100
     33 H8          -4.1870     1.7450    -1.8340 ha         1 29L       0.151000
     34 H9          -5.1590    -1.8850     2.9370 h1         1 29L       0.074200
     35 H10         -6.0070    -1.6370     1.4050 h1         1 29L       0.074200
     36 H11         -6.6500     0.6380     2.1280 h1         1 29L       0.040700
     37 H12         -5.8020     0.3900     3.6610 h1         1 29L       0.040700
     38 H13         -8.0430    -0.0900     3.8460 ho         1 29L       0.414000
     39 H14          2.2170     0.8900     4.1730 hc         1 29L       0.058200
     40 H15          2.2180    -0.8890     4.1730 hc         1 29L       0.058200
     41 H16          4.2840     0.9040     3.2390 hc         1 29L       0.072700
     42 H17          4.2840    -0.9020     3.2390 hc         1 29L       0.072700
     43 H18          6.3660     0.0010     0.1580 ho         1 29L       0.430000
@<TRIPOS>BOND
     1    20    19 1   
     2    19    18 1   
     3     2     1 ar  
     4     2     3 ar  
     5    24    25 1   
     6    24    23 2   
     7     1     6 ar  
     8    18     9 1   
     9     3    23 1   
    10     3     4 ar  
    11     8     9 1   
    12     8     7 2   
    13    23    22 1   
    14     9    10 1   
    15    13    14 ar  
    16    13    12 ar  
    17     6     7 1   
    18     6     5 ar  
    19     7    11 1   
    20    10    11 2   
    21    14    15 ar  
    22    11    12 1   
    23    12    17 ar  
    24     4     5 ar  
    25     4    21 1   
    26    22    21 1   
    27    15    16 ar  
    28    17    16 ar  
    29     1    26 1   
    30     2    27 1   
    31     5    28 1   
    32     8    29 1   
    33    13    30 1   
    34    14    31 1   
    35    16    32 1   
    36    17    33 1   
    37    18    34 1   
    38    18    35 1   
    39    19    36 1   
    40    19    37 1   
    41    20    38 1   
    42    21    39 1   
    43    21    40 1   
    44    22    41 1   
    45    22    42 1   
    46    25    43 1   
@<TRIPOS>SUBSTRUCTURE
     1 29L         1 TEMP              0 ****  ****    0 ROOT
