@<TRIPOS>MOLECULE
29L
   43    46     1     0     0
SMALL
bcc


@<TRIPOS>ATOM
      1 C1           0.0000     0.0000     0.0000 ca         1 29L      -0.112000
      2 C2           1.3740     0.0000     0.0000 ca         1 29L      -0.048000
      3 C3           2.0820     0.0000     1.2120 ca         1 29L      -0.150900
      4 C4           1.3810     0.0000     2.4170 ca         1 29L      -0.077300
      5 C5           0.0010    -0.0000     2.4140 ca         1 29L      -0.098000
      6 C6          -0.6980     0.0010     1.2090 ca         1 29L       0.029000
      7 C7          -2.1800     0.0060     1.2100 cc         1 29L      -0.253300
      8 C8          -2.9900    -0.8300     1.9210 cd         1 29L      -0.234300
      9 N9          -4.2670    -0.4990     1.6470 na         1 29L       0.501400
     10 N10         -4.2640     0.5710     0.7440 nd         1 29L      -0.640800
     11 C11         -3.0170     0.8880     0.4780 cc         1 29L       0.436800
     12 C12         -2.5630     1.9700    -0.4280 ca         1 29L      -0.084500
     13 C13         -1.4030     2.6990    -0.1530 ca         1 29L      -0.207800
     14 C14         -1.0180     3.6970    -1.0230 ca         1 29L       0.398700
     15 N15         -1.7290     3.9680    -2.1020 nb         1 29L      -0.583000
     16 C16         -2.8300     3.3040    -2.3980 ca         1 29L       0.398700
     17 C17         -3.2820     2.2860    -1.5850 ca         1 29L      -0.207800
     18 C18         -5.4580    -1.1490     2.2010 c3         1 29L      -0.020700
     19 C19         -6.3500    -0.0980     2.8640 c3         1 29L       0.210400
     20 O20         -7.5120    -0.7320     3.4050 oh         1 29L      -0.591800
     21 C21          2.3560     0.0010     3.5700 c3         1 29L       0.037900
     22 C22          3.7600     0.0010     2.9500 c3         1 29L      -0.078700
     23 C23          3.5370     0.0000     1.4570 ce         1 29L       0.419900
     24 N24          4.4600     0.0010     0.5510 n2         1 29L      -0.396200
     25 O25          5.8250     0.0010     0.9300 oh         1 29L      -0.372500
     26 H1          -0.5420     0.0010    -0.9380 ha         1 29L       0.117000
     27 H2           1.9140    -0.0010    -0.9390 ha         1 29L       0.115000
     28 H3          -0.5410     0.0010     3.3530 ha         1 29L       0.107000
     29 H4          -2.6640    -1.6200     2.5860 h4         1 29L       0.151000
     30 H5          -0.8140     2.4830     0.7300 ha         1 29L       0.127000
     31 H6          -0.1200     4.2680    -0.8180 h4         1 29L      -0.019400
     32 H7          -3.3820     3.5570    -3.2950 h4         1 29L      -0.019400
     33 H8          -4.1870     1.7450    -1.8340 ha         1 29L       0.127000
     34 H9          -5.1590    -1.8850     2.9370 h1         1 29L       0.040700
     35 H10         -6.0070    -1.6370     1.4050 h1         1 29L       0.040700
     36 H11         -6.6500     0.6380     2.1280 h1         1 29L       0.002200
     37 H12         -5.8020     0.3900     3.6610 h1         1 29L       0.002200
     38 H13         -8.0430    -0.0900     3.8460 ho         1 29L       0.400000
     39 H14          2.2180    -0.8890     4.1730 hc         1 29L       0.023200
     40 H15          2.2170     0.8900     4.1730 hc         1 29L       0.023200
     41 H16          4.2840     0.9040     3.2390 hc         1 29L       0.036700
     42 H17          4.2840    -0.9020     3.2390 hc         1 29L       0.036700
     43 H18          6.3660     0.0010     0.1580 ho         1 29L       0.417000
@<TRIPOS>BOND
     1     1     2 ar  
     2     1     6 ar  
     3     1    26 1   
     4     2     3 ar  
     5     2    27 1   
     6     3     4 ar  
     7     3    23 1   
     8     4     5 ar  
     9     4    21 1   
    10     5     6 ar  
    11     5    28 1   
    12     6     7 1   
    13     7     8 2   
    14     7    11 1   
    15     8     9 1   
    16     8    29 1   
    17     9    10 1   
    18     9    18 1   
    19    10    11 2   
    20    11    12 1   
    21    12    13 ar  
    22    12    17 ar  
    23    13    14 ar  
    24    13    30 1   
    25    14    15 ar  
    26    14    31 1   
    27    15    16 ar  
    28    16    17 ar  
    29    16    32 1   
    30    17    33 1   
    31    18    19 1   
    32    18    34 1   
    33    18    35 1   
    34    19    20 1   
    35    19    36 1   
    36    19    37 1   
    37    20    38 1   
    38    21    22 1   
    39    21    39 1   
    40    21    40 1   
    41    22    23 1   
    42    22    41 1   
    43    22    42 1   
    44    23    24 2   
    45    24    25 1   
    46    25    43 1   
@<TRIPOS>SUBSTRUCTURE
     1 29L         1 TEMP              0 ****  ****    0 ROOT
