@<TRIPOS>MOLECULE
molecule
   68    71     1     0     0
SMALL
bcc


@<TRIPOS>ATOM
      1 C            0.0000     0.0000     0.0000 ca         1 29M      -0.083300
      2 F           -5.6850    -0.0100     5.7430 f          1 29M      -0.141900
      3 N            1.7980    -0.0020     3.7240 na         1 29M      -0.179400
      4 O           -1.8430     2.3860     4.3240 os         1 29M      -0.314900
      5 S            4.3090     0.8340     0.0090 s6         1 29M       1.326900
      6 C1           1.3870     0.0000     0.0000 ca         1 29M      -0.159000
      7 N1           0.5340    -1.3680     6.5490 n3         1 29M      -0.719600
      8 O1           3.8100     0.3030    -1.2120 o          1 29M      -0.629300
      9 C2           2.0910     0.0000     1.1910 ca         1 29M       0.120600
     10 N2           3.4890     0.0010     1.1820 nu         1 29M      -0.768500
     11 O2           5.6760     0.6880     0.3660 o          1 29M      -0.629300
     12 C3           1.3970    -0.0010     2.4040 ca         1 29M      -0.061200
     13 C4           0.7090    -0.0030     4.5470 cc         1 29M      -0.036300
     14 C5          -0.4250    -0.0020     3.8030 cd         1 29M      -0.065400
     15 C6          -0.0060    -0.0020     2.3920 ca         1 29M      -0.066800
     16 C7          -0.6940    -0.0010     1.1770 ca         1 29M      -0.086000
     17 C8          -1.8170    -0.0030     4.3120 ca         1 29M      -0.058800
     18 C9          -2.4720    -1.2080     4.5560 ca         1 29M      -0.037000
     19 C10         -3.7660    -1.2050     5.0360 ca         1 29M      -0.213000
     20 C11         -4.4180    -0.0060     5.2750 ca         1 29M       0.167900
     21 C12         -3.7750     1.1970     5.0350 ca         1 29M      -0.272000
     22 C13         -2.4770     1.2060     4.5540 ca         1 29M       0.171100
     23 C14         -2.5790     3.5810     4.5940 c3         1 29M       0.124700
     24 C15          0.7570    -0.0040     6.0530 c3         1 29M       0.228000
     25 C16          1.6380    -2.2570     6.1620 c3         1 29M       0.144100
     26 C17          0.3390    -1.3740     8.0050 c3         1 29M       0.210100
     27 C18         -0.1280    -2.7380     8.4430 ca         1 29M      -0.082300
     28 C19          0.7950    -3.7040     8.7960 ca         1 29M      -0.115500
     29 C20          0.3670    -4.9550     9.1980 ca         1 29M      -0.129500
     30 C21         -0.9850    -5.2400     9.2490 ca         1 29M      -0.126000
     31 C22         -1.9090    -4.2740     8.8970 ca         1 29M      -0.129500
     32 C23         -1.4800    -3.0210     8.4990 ca         1 29M      -0.115500
     33 C24          3.7760     2.5550     0.2200 c3         1 29M      -0.242300
     34 C25         -0.7480     0.0080    -1.3080 c3         1 29M      -0.024400
     35 C26         -0.3750     1.2610    -2.1020 c3         1 29M      -0.087600
     36 C27         -0.3750    -1.2380    -2.1150 c3         1 29M      -0.087600
     37 H1           2.7500    -0.0020     4.0340 hn         1 29M       0.292700
     38 H2           1.9240     0.0010    -0.9410 ha         1 29M       0.184000
     39 H4           3.9940    -0.5420     1.8540 hn         1 29M       0.457800
     40 H5          -1.7780    -0.0010     1.1680 ha         1 29M       0.138000
     41 H6          -1.9650    -2.1480     4.3710 ha         1 29M       0.155000
     42 H7          -4.2740    -2.1420     5.2260 ha         1 29M       0.146000
     43 H8          -4.2890     2.1320     5.2210 ha         1 29M       0.148000
     44 H9          -3.4760     3.5990     3.9860 h1         1 29M       0.042700
     45 H10         -2.8530     3.6070     5.6420 h1         1 29M       0.042700
     46 H11         -1.9670     4.4430     4.3600 h1         1 29M       0.042700
     47 H12         -0.0140     0.6520     6.4390 h1         1 29M       0.046700
     48 H13          1.7270     0.3460     6.3830 h1         1 29M       0.046700
     49 H14          1.3250    -3.2890     6.2680 h1         1 29M       0.036367
     50 H15          1.9100    -2.0670     5.1300 h1         1 29M       0.036367
     51 H16          2.4920    -2.0710     6.8000 h1         1 29M       0.036367
     52 H17          1.2750    -1.1370     8.4950 h1         1 29M       0.040200
     53 H18         -0.4060    -0.6340     8.2720 h1         1 29M       0.040200
     54 H19          1.8550    -3.4810     8.7560 ha         1 29M       0.131500
     55 H20          1.0910    -5.7130     9.4750 ha         1 29M       0.130000
     56 H21         -1.3210    -6.2220     9.5630 ha         1 29M       0.129000
     57 H22         -2.9680    -4.4960     8.9380 ha         1 29M       0.130000
     58 H23         -2.2030    -2.2630     8.2230 ha         1 29M       0.131500
     59 H24          4.5520     3.2200    -0.1380 h1         1 29M       0.101700
     60 H25          3.5890     2.7490     1.2690 h1         1 29M       0.101700
     61 H26          2.8670     2.7240    -0.3450 h1         1 29M       0.101700
     62 H27         -1.8140     0.0070    -1.1140 hc         1 29M       0.052700
     63 H28         -0.3640     2.1180    -1.4400 hc         1 29M       0.037867
     64 H29         -1.1030     1.4210    -2.8870 hc         1 29M       0.037867
     65 H30          0.6070     1.1310    -2.5410 hc         1 29M       0.037867
     66 H31          0.6070    -1.1040    -2.5540 hc         1 29M       0.037867
     67 H32         -1.1040    -1.3900    -2.9020 hc         1 29M       0.037867
     68 H33         -0.3640    -2.1020    -1.4620 hc         1 29M       0.037867
@<TRIPOS>BOND
     1     2    20 1   
     2    19    20 ar  
     3    19    18 ar  
     4    20    21 ar  
     5    18    17 ar  
     6    21    22 ar  
     7    35    34 1   
     8    17    22 ar  
     9    17    14 1   
    10    34    36 1   
    11    34     1 1   
    12    22     4 1   
    13    16     1 ar  
    14    16    15 ar  
    15     1     6 ar  
    16    14    15 1   
    17    14    13 2   
    18    32    31 ar  
    19    32    27 ar  
    20    15    12 ar  
    21    31    30 ar  
    22    26    27 1   
    23    26     7 1   
    24     4    23 1   
    25    27    28 ar  
    26    13    24 1   
    27    13     3 1   
    28     6     9 ar  
    29    12     9 ar  
    30    12     3 1   
    31    24     7 1   
    32    30    29 ar  
    33     7    25 1   
    34     9    10 1   
    35    11     5 2   
    36    28    29 ar  
    37    33     5 1   
    38     5    10 1   
    39     5     8 2   
    40     3    37 1   
    41     6    38 1   
    42    10    39 1   
    43    16    40 1   
    44    18    41 1   
    45    19    42 1   
    46    21    43 1   
    47    23    44 1   
    48    23    45 1   
    49    23    46 1   
    50    24    47 1   
    51    24    48 1   
    52    25    49 1   
    53    25    50 1   
    54    25    51 1   
    55    26    52 1   
    56    26    53 1   
    57    28    54 1   
    58    29    55 1   
    59    30    56 1   
    60    31    57 1   
    61    32    58 1   
    62    33    59 1   
    63    33    60 1   
    64    33    61 1   
    65    34    62 1   
    66    35    63 1   
    67    35    64 1   
    68    35    65 1   
    69    36    66 1   
    70    36    67 1   
    71    36    68 1   
@<TRIPOS>SUBSTRUCTURE
     1 29M         1 TEMP              0 ****  ****    0 ROOT
