@<TRIPOS>MOLECULE
molecule
   39    39     1     0     0
SMALL
bcc


@<TRIPOS>ATOM
      1 N1           0.0000     0.0000     0.0000 n          1 29N      -0.525133
      2 C2           1.4710     0.0000     0.0000 c3         1 29N       0.278400
      3 N3           1.9280     0.0000     1.3980 n          1 29N      -0.525133
      4 C4           1.3480     0.9880     2.3220 c3         1 29N       0.278400
      5 N5          -0.1180     0.9310     2.1900 n          1 29N      -0.525133
      6 C6          -0.6980     0.9880     0.8380 c3         1 29N       0.278400
      7 C7          -0.6920    -0.8790    -0.7530 c          1 29N       0.672100
      8 C8           0.0420    -1.8830    -1.6040 c3         1 29N      -0.161400
      9 O9          -1.9040    -0.8620    -0.7450 o          1 29N      -0.605767
     10 C10         -0.9070     0.8300     3.2780 c          1 29N       0.672100
     11 C11         -2.4050     0.7740     3.1190 c3         1 29N      -0.161400
     12 O12         -0.4110     0.7860     4.3830 o          1 29N      -0.605767
     13 C13          2.8540    -0.8830     1.8240 c          1 29N       0.672100
     14 C14          3.3070    -0.8670     3.2600 c3         1 29N      -0.161400
     15 O15          3.3210    -1.6910     1.0490 o          1 29N      -0.605767
     16 C16         -0.9700    -2.7540    -2.3520 c3         1 29N      -0.077100
     17 C19         -3.0580     0.6610     4.4980 c3         1 29N      -0.077100
     18 C25          4.3550    -1.9600     3.4780 c3         1 29N      -0.077100
     19 H1           1.8360     0.8880    -0.5030 h2         1 29N       0.074533
     20 H2           1.8360    -0.8880    -0.5030 h2         1 29N       0.074533
     21 H3           1.6320     0.7470     3.3400 h2         1 29N       0.074533
     22 H4           1.6990     1.9800     2.0640 h2         1 29N       0.074533
     23 H5          -1.7530     0.7470     0.8840 h2         1 29N       0.074533
     24 H6          -0.5600     1.9800     0.4240 h2         1 29N       0.074533
     25 H7           0.6680    -1.3620    -2.3190 hc         1 29N       0.067033
     26 H8           0.6600    -2.5090    -0.9720 hc         1 29N       0.067033
     27 H9          -2.6720    -0.0890     2.5210 hc         1 29N       0.067033
     28 H10         -2.7500     1.6750     2.6280 hc         1 29N       0.067033
     29 H11          2.4580    -1.0450     3.9090 hc         1 29N       0.067033
     30 H12          3.7410     0.0990     3.4910 hc         1 29N       0.067033
     31 H13         -1.5960    -3.2750    -1.6380 hc         1 29N       0.045033
     32 H14         -0.4430    -3.4760    -2.9640 hc         1 29N       0.045033
     33 H15         -1.5880    -2.1280    -2.9840 hc         1 29N       0.045033
     34 H16         -2.7910     1.5240     5.0960 hc         1 29N       0.045033
     35 H17         -2.7120    -0.2400     4.9890 hc         1 29N       0.045033
     36 H18         -4.1350     0.6200     4.3840 hc         1 29N       0.045033
     37 H19          4.6800    -1.9480     4.5110 hc         1 29N       0.045033
     38 H20          3.9210    -2.9260     3.2480 hc         1 29N       0.045033
     39 H21          5.2040    -1.7810     2.8290 hc         1 29N       0.045033
@<TRIPOS>BOND
     1    18    14 1   
     2    15    13 2   
     3    14    13 1   
     4    13     3 1   
     5    16     8 1   
     6     8     7 1   
     7     3     2 1   
     8     3     4 1   
     9     2     1 1   
    10     7     1 1   
    11     7     9 2   
    12     1     6 1   
    13     4     5 1   
    14    17    11 1   
    15     5     6 1   
    16     5    10 1   
    17    11    10 1   
    18    10    12 2   
    19     2    19 1   
    20     2    20 1   
    21     4    21 1   
    22     4    22 1   
    23     6    23 1   
    24     6    24 1   
    25     8    25 1   
    26     8    26 1   
    27    11    27 1   
    28    11    28 1   
    29    14    29 1   
    30    14    30 1   
    31    16    31 1   
    32    16    32 1   
    33    16    33 1   
    34    17    34 1   
    35    17    35 1   
    36    17    36 1   
    37    18    37 1   
    38    18    38 1   
    39    18    39 1   
@<TRIPOS>SUBSTRUCTURE
     1 29N         1 TEMP              0 ****  ****    0 ROOT
