@<TRIPOS>MOLECULE
molecule
   33    33     1     0     0
SMALL
bcc


@<TRIPOS>ATOM
      1 C1           0.0000     0.0000     0.0000 ca         1 29O       0.085600
      2 C2           1.3880     0.0000     0.0000 ca         1 29O      -0.172333
      3 C3           2.0820     0.0000     1.2020 ca         1 29O       0.085600
      4 C4           1.3880     0.0010     2.4050 ca         1 29O      -0.172333
      5 C5           0.0000     0.0020     2.4050 ca         1 29O       0.085600
      6 C6          -0.6940     0.0060     1.2030 ca         1 29O      -0.172333
      7 N1          -0.6990    -0.0010    -1.2120 ns         1 29O      -0.469767
      8 N2          -0.7000     0.0010     3.6160 ns         1 29O      -0.469767
      9 C7          -1.8830    -0.6350     3.7100 c          1 29O       0.653433
     10 C8          -0.2200    -0.6910    -2.2650 c          1 29O       0.653433
     11 C9          -1.0240    -0.7780    -3.5370 c3         1 29O      -0.090000
     12 O1           0.8580    -1.2410    -2.1910 o          1 29O      -0.569433
     13 O2          -2.2970    -1.2880     2.7750 o          1 29O      -0.569433
     14 C10         -2.6920    -0.5370     4.9790 c3         1 29O      -0.090000
     15 N3           3.4820    -0.0010     1.2020 ns         1 29O      -0.469767
     16 C11          4.1560     0.6880     2.1440 c          1 29O       0.653433
     17 O3           3.5520     1.2390     3.0410 o          1 29O      -0.569433
     18 C12          5.6590     0.7730     2.0840 c3         1 29O      -0.090000
     19 H1           1.9290    -0.0030    -0.9380 ha         1 29O       0.164333
     20 H2           1.9300    -0.0010     3.3430 ha         1 29O       0.164333
     21 H3          -1.7770     0.0070     1.2030 ha         1 29O       0.164333
     22 H4          -1.5390     0.5360    -1.3060 hn         1 29O       0.330500
     23 H5          -0.3280     0.4870     4.4080 hn         1 29O       0.330500
     24 H6          -1.1880     0.2190    -3.9290 h1         1 29O       0.089533
     25 H7          -1.9790    -1.2460    -3.3300 h1         1 29O       0.089533
     26 H9          -2.9370     0.5000     5.1720 h1         1 29O       0.089533
     27 H10         -2.1150    -0.9330     5.8060 h1         1 29O       0.089533
     28 H12          3.9790    -0.4200     0.4410 hn         1 29O       0.330500
     29 H13          6.0800    -0.2230     2.1380 h1         1 29O       0.089533
     30 H14          5.9570     1.2410     1.1540 h1         1 29O       0.089533
     31 Br1         -0.0420    -1.8490    -4.8610 br         1 29O      -0.111067
     32 Br2         -4.3500    -1.5760     4.7790 br         1 29O      -0.111067
     33 Br3          6.3160     1.8440     3.5960 br         1 29O      -0.111067
@<TRIPOS>BOND
     1    18    16 1   
     2    13     9 2   
     3    16    15 1   
     4    16    17 2   
     5    15     3 1   
     6     9    14 1   
     7     9     8 1   
     8     4     3 ar  
     9     4     5 ar  
    10     3     2 ar  
    11     8     5 1   
    12     5     6 ar  
    13     2     1 ar  
    14     6     1 ar  
    15     1     7 1   
    16    12    10 2   
    17     7    10 1   
    18    10    11 1   
    19     2    19 1   
    20     4    20 1   
    21     6    21 1   
    22     7    22 1   
    23     8    23 1   
    24    11    24 1   
    25    11    25 1   
    26    14    26 1   
    27    14    27 1   
    28    15    28 1   
    29    18    29 1   
    30    18    30 1   
    31    11    31 1   
    32    14    32 1   
    33    18    33 1   
@<TRIPOS>SUBSTRUCTURE
     1 29O         1 TEMP              0 ****  ****    0 ROOT
