@<TRIPOS>MOLECULE
29O
   33    33     1     0     0
SMALL
bcc


@<TRIPOS>ATOM
      1 C1           0.0000     0.0000     0.0000 ca         1 29O      -0.058067
      2 C2           1.3880     0.0000     0.0000 ca         1 29O      -0.142333
      3 C3           2.0820     0.0000     1.2020 ca         1 29O      -0.058067
      4 C4           1.3880     0.0010     2.4050 ca         1 29O      -0.142333
      5 C5           0.0000     0.0020     2.4050 ca         1 29O      -0.058067
      6 C6          -0.6940     0.0060     1.2030 ca         1 29O      -0.142333
      7 N1          -0.6990    -0.0010    -1.2120 ns         1 29O      -0.025433
      8 N2          -0.7000     0.0010     3.6160 ns         1 29O      -0.025433
      9 C7          -1.8830    -0.6350     3.7100 c          1 29O       0.546100
     10 C8          -0.2200    -0.6910    -2.2650 c          1 29O       0.546100
     11 C9          -1.0240    -0.7780    -3.5370 c3         1 29O       0.047000
     12 O1           0.8580    -1.2410    -2.1910 o          1 29O      -0.612433
     13 O2          -2.2970    -1.2880     2.7750 o          1 29O      -0.612433
     14 C10         -2.6920    -0.5370     4.9790 c3         1 29O       0.047000
     15 N3           3.4820    -0.0010     1.2020 ns         1 29O      -0.025433
     16 C11          4.1560     0.6880     2.1440 c          1 29O       0.546100
     17 O3           3.5520     1.2390     3.0410 o          1 29O      -0.612433
     18 C12          5.6590     0.7730     2.0840 c3         1 29O       0.047000
     19 H1           1.9290    -0.0030    -0.9380 ha         1 29O       0.146000
     20 H2           1.9300    -0.0010     3.3430 ha         1 29O       0.146000
     21 H3          -1.7770     0.0070     1.2030 ha         1 29O       0.146000
     22 H4          -1.5390     0.5360    -1.3060 hn         1 29O       0.171167
     23 H5          -0.3280     0.4870     4.4080 hn         1 29O       0.171167
     24 H6          -1.1880     0.2190    -3.9290 h1         1 29O       0.041200
     25 H7          -1.9790    -1.2460    -3.3300 h1         1 29O       0.041200
     26 H9          -2.9370     0.5000     5.1720 h1         1 29O       0.041200
     27 H10         -2.1150    -0.9330     5.8060 h1         1 29O       0.041200
     28 H12          3.9790    -0.4200     0.4410 hn         1 29O       0.171167
     29 H13          6.0800    -0.2230     2.1380 h1         1 29O       0.041200
     30 H14          5.9570     1.2410     1.1540 h1         1 29O       0.041200
     31 Br1         -0.0420    -1.8490    -4.8610 br         1 29O      -0.155400
     32 Br2         -4.3500    -1.5760     4.7790 br         1 29O      -0.155400
     33 Br3          6.3160     1.8440     3.5960 br         1 29O      -0.155400
@<TRIPOS>BOND
     1     1     2 ar  
     2     1     6 ar  
     3     1     7 1   
     4     2     3 ar  
     5     2    19 1   
     6     3     4 ar  
     7     3    15 1   
     8     4     5 ar  
     9     4    20 1   
    10     5     6 ar  
    11     5     8 1   
    12     6    21 1   
    13     7    10 1   
    14     7    22 1   
    15     8     9 1   
    16     8    23 1   
    17     9    13 2   
    18     9    14 1   
    19    10    11 1   
    20    10    12 2   
    21    11    24 1   
    22    11    25 1   
    23    11    31 1   
    24    14    26 1   
    25    14    27 1   
    26    14    32 1   
    27    15    16 1   
    28    15    28 1   
    29    16    17 2   
    30    16    18 1   
    31    18    29 1   
    32    18    30 1   
    33    18    33 1   
@<TRIPOS>SUBSTRUCTURE
     1 29O         1 TEMP              0 ****  ****    0 ROOT
