@<TRIPOS>MOLECULE
29P
   51    52     1     0     0
SMALL
bcc


@<TRIPOS>ATOM
      1 O4A          0.0000     0.0000     0.0000 o          1 29P      -0.930800
      2 C9A          1.2080     0.0000     0.0000 c          1 29P       0.991600
      3 O3A          1.8800     0.0000     1.1630 o          1 29P      -0.930800
      4 C8A          1.9610    -0.0070    -1.3050 c3         1 29P      -0.141400
      5 C7A          0.9670    -0.0130    -2.4680 c3         1 29P       0.046900
      6 C3A          1.7200    -0.0200    -3.7730 cc         1 29P      -0.117300
      7 C2A          2.1430     1.1120    -4.4980 cc         1 29P      -0.067300
      8 C5A          1.9240     2.5520    -4.1110 c3         1 29P      -0.052100
      9 C6A          3.0820     3.0270    -3.2720 c          1 29P       0.989600
     10 O1A          3.1030     4.2880    -2.8110 o          1 29P      -0.914800
     11 O2A          3.9910     2.2750    -3.0150 o          1 29P      -0.914800
     12 C1A          2.7780     0.6700    -5.6020 cd         1 29P      -0.384600
     13 CHA          3.3990     1.5330    -6.6700 c3         1 29P       0.128200
     14 NA           2.7640    -0.6940    -5.5850 na         1 29P       0.372900
     15 C4A          2.1180    -1.1110    -4.4580 cd         1 29P      -0.342600
     16 CHB          1.8870    -2.5430    -4.0520 c3         1 29P       0.061900
     17 C1B          0.5050    -2.9920    -4.5290 c3         1 29P       0.051900
     18 C2B          0.2840    -4.4480    -4.1910 c2         1 29P      -0.076400
     19 C5B          1.1010    -5.6160    -4.6800 c3         1 29P      -0.069200
     20 C6B          0.5900    -6.0570    -6.0280 c          1 29P       0.993600
     21 O1B         -0.3410    -5.4830    -6.5380 o          1 29P      -0.923300
     22 O2B          1.1710    -7.0880    -6.6610 o          1 29P      -0.923300
     23 NB          -0.5430    -2.2520    -3.8150 ns         1 29P      -0.214900
     24 C4B         -1.2840    -3.1520    -3.1430 c          1 29P       0.639700
     25 O5B         -2.2420    -2.8850    -2.4420 o          1 29P      -0.712500
     26 C3B         -0.7680    -4.5050    -3.3810 ce         1 29P      -0.205400
     27 C7B         -1.3440    -5.7680    -2.7950 c3         1 29P       0.064800
     28 C8B         -0.7570    -5.9960    -1.4000 c3         1 29P      -0.133400
     29 C9B         -1.3330    -7.2590    -0.8140 c          1 29P       0.992600
     30 O3B         -0.9610    -7.6620     0.4110 o          1 29P      -0.937300
     31 O4B         -2.1310    -7.9100    -1.4460 o          1 29P      -0.937300
     32 H2           2.5840     0.8760    -1.3670 hc         1 29P       0.028700
     33 H3           2.5830    -0.8930    -1.3580 hc         1 29P       0.028700
     34 H4           0.3440     0.8720    -2.4140 hc         1 29P       0.026200
     35 H5           0.3440    -0.8970    -2.4060 hc         1 29P       0.026200
     36 H6           1.8530     3.1600    -5.0050 hc         1 29P       0.003200
     37 H7           1.0060     2.6380    -3.5420 hc         1 29P       0.003200
     38 H9           2.6370     2.1630    -7.1120 hc         1 29P      -0.016300
     39 H10          3.8350     0.9030    -7.4350 hc         1 29P      -0.016300
     40 H11          4.1700     2.1530    -6.2300 hc         1 29P      -0.016300
     41 H12          3.1650    -1.2900    -6.2820 hn         1 29P       0.084700
     42 H13          2.6450    -3.1730    -4.5010 hc         1 29P       0.030200
     43 H14          1.9410    -2.6260    -2.9730 hc         1 29P       0.030200
     44 H15          0.4040    -2.8390    -5.5970 h1         1 29P       0.035700
     45 H16          1.0170    -6.4350    -3.9770 hc         1 29P       0.020700
     46 H17          2.1390    -5.3190    -4.7670 hc         1 29P       0.020700
     47 H19         -0.6850    -1.2610    -3.8310 hn         1 29P       0.217500
     48 H20         -1.0960    -6.6080    -3.4330 hc         1 29P       0.024700
     49 H21         -2.4210    -5.6740    -2.7230 hc         1 29P       0.024700
     50 H22          0.3200    -6.0890    -1.4720 hc         1 29P       0.019200
     51 H23         -1.0050    -5.1560    -0.7620 hc         1 29P       0.019200
@<TRIPOS>BOND
     1     1     2 1   
     2     2     3 1   
     3     2     4 1   
     4     4     5 1   
     5     4    32 1   
     6     4    33 1   
     7     5     6 1   
     8     5    34 1   
     9     5    35 1   
    10     6     7 1   
    11     6    15 2   
    12     7     8 1   
    13     7    12 2   
    14     8     9 1   
    15     8    36 1   
    16     8    37 1   
    17     9    10 1   
    18     9    11 1   
    19    12    13 1   
    20    12    14 1   
    21    13    38 1   
    22    13    39 1   
    23    13    40 1   
    24    14    15 1   
    25    14    41 1   
    26    15    16 1   
    27    16    17 1   
    28    16    42 1   
    29    16    43 1   
    30    17    18 1   
    31    17    23 1   
    32    17    44 1   
    33    18    19 1   
    34    18    26 2   
    35    19    20 1   
    36    19    45 1   
    37    19    46 1   
    38    20    21 1   
    39    20    22 1   
    40    23    24 1   
    41    23    47 1   
    42    24    25 2   
    43    24    26 1   
    44    26    27 1   
    45    27    28 1   
    46    27    48 1   
    47    27    49 1   
    48    28    29 1   
    49    28    50 1   
    50    28    51 1   
    51    29    30 1   
    52    29    31 1   
@<TRIPOS>SUBSTRUCTURE
     1 29P         1 TEMP              0 ****  ****    0 ROOT
