@<TRIPOS>MOLECULE
molecule
   33    36     1     0     0
SMALL
bcc


@<TRIPOS>ATOM
      1 Cl           0.0000     0.0000     0.0000 cl         1 29Q      -0.108400
      2 C13          1.7350     0.0000     0.0000 ca         1 29Q       0.036400
      3 C12          2.4280     0.0000     1.1980 ca         1 29Q      -0.129000
      4 C11          3.8100     0.0000     1.1970 ca         1 29Q      -0.091500
      5 C14          2.4270    -0.0060    -1.1980 ca         1 29Q      -0.129000
      6 C15          3.8100    -0.0060    -1.1970 ca         1 29Q      -0.091500
      7 C10          4.5000     0.0000    -0.0010 ca         1 29Q      -0.087300
      8 C            6.0070     0.0000    -0.0010 c3         1 29Q       0.573600
      9 O            6.4980    -0.6780    -1.1600 oh         1 29Q      -0.595800
     10 C5           6.5250     1.4150     0.0280 ca         1 29Q      -0.124300
     11 C6           6.3830     2.4820    -0.8320 ca         1 29Q      -0.086000
     12 C7           6.9880     3.6920    -0.5360 ca         1 29Q      -0.116000
     13 C8           7.7350     3.8340     0.6200 ca         1 29Q      -0.123000
     14 C9           7.8820     2.7690     1.4870 ca         1 29Q      -0.080000
     15 C4           7.2750     1.5490     1.1930 ca         1 29Q      -0.114900
     16 C1           7.2600     0.2530     1.9270 ce         1 29Q       0.629800
     17 N            6.5110    -0.6500     1.2150 nh         1 29Q      -0.869600
     18 C3           6.4940    -1.9340     1.9360 c3         1 29Q       0.227800
     19 C2           7.3480    -1.6490     3.1850 c3         1 29Q       0.101800
     20 N1           7.7490    -0.2470     3.0300 n2         1 29Q      -0.645900
     21 H1           1.8860     0.0000     2.1360 ha         1 29Q       0.146000
     22 H2           4.3520     0.0030     2.1350 ha         1 29Q       0.150500
     23 H3           1.8860    -0.0110    -2.1360 ha         1 29Q       0.146000
     24 H4           4.3520    -0.0090    -2.1350 ha         1 29Q       0.150500
     25 H5           7.4400    -0.6480    -1.1660 ho         1 29Q       0.419000
     26 H6           5.7990     2.3750    -1.7380 ha         1 29Q       0.143000
     27 H7           6.8770     4.5310    -1.2120 ha         1 29Q       0.139000
     28 H8           8.2060     4.7830     0.8450 ha         1 29Q       0.140000
     29 H9           8.4670     2.8820     2.3920 ha         1 29Q       0.151000
     30 H10          6.9460    -2.7140     1.3350 h1         1 29Q       0.051200
     31 H11          6.7570    -1.7760     4.0840 h1         1 29Q       0.067200
     32 H12          5.4820    -2.1980     2.2190 h1         1 29Q       0.051200
     33 H13          8.2200    -2.2920     3.2020 h1         1 29Q       0.067200
@<TRIPOS>BOND
     1     1     2 1
     2     5     2 ar
     3     5     6 ar
     4     2     3 ar
     5     6     7 ar
     6     3     4 ar
     7     7     4 ar
     8     7     8 1
     9     9     8 1
    10     8    10 1
    11     8    17 1
    12    11    10 ar
    13    11    12 ar
    14    10    15 ar
    15    12    13 ar
    16    17    18 1
    17    17    16 1
    18    18    19 1
    19    15    16 1
    20    15    14 ar
    21    16    20 2
    22    13    14 ar
    23    19    20 1
    24     3    21 1
    25     4    22 1
    26     5    23 1
    27     6    24 1
    28     9    25 1
    29    11    26 1
    30    12    27 1
    31    13    28 1
    32    14    29 1
    33    18    30 1
    34    19    31 1
    35    18    32 1
    36    19    33 1
@<TRIPOS>SUBSTRUCTURE
     1 29Q         1 TEMP              0 ****  ****    0 ROOT
