@<TRIPOS>MOLECULE
29R
   48    49     1     0     0
SMALL
bcc


@<TRIPOS>ATOM
      1 N1           0.0000     0.0000     0.0000 ns         1 29R      -0.014400
      2 C2           1.3640     0.0000     0.0000 cc         1 29R       0.415800
      3 N2           2.0300     0.0020    -1.2010 nu         1 29R      -0.370200
      4 N3           2.0580     0.0000     1.1130 nd         1 29R      -0.613100
      5 C4           1.4460    -0.0010     2.3130 cd         1 29R       0.066100
      6 C5           0.0490    -0.0020     2.3670 cc         1 29R      -0.501900
      7 C6          -0.6810    -0.0010     1.1670 c          1 29R       0.678100
      8 O6          -1.9010    -0.0010     1.1790 o          1 29R      -0.675500
      9 N7          -0.2850    -0.0030     3.7090 na         1 29R       0.574900
     10 C8           0.8710    -0.0040     4.4040 cc         1 29R      -0.413600
     11 N9           1.8870    -0.0020     3.5830 na         1 29R       0.567900
     12 C11          3.2960    -0.0040     3.9850 c3         1 29R      -0.090700
     13 C12          3.8210     1.4330     4.0050 c3         1 29R      -0.049400
     14 C13          5.2920     1.4320     4.4260 c3         1 29R      -0.008400
     15 C14          5.8190     2.8670     4.4460 c3         1 29R      -0.134400
     16 C15          7.2680     2.8660     4.8600 c          1 29R       0.980600
     17 O16          7.8220     1.8240     5.1130 o          1 29R      -0.891300
     18 O17          7.9410     4.0240     4.9470 o          1 29R      -0.891300
     19 C31          3.4940     0.0020    -1.2260 c3         1 29R       0.140800
     20 C32          3.9800     0.0040    -2.6760 c3         1 29R      -0.048400
     21 C33          5.5090     0.0040    -2.7030 c3         1 29R      -0.009400
     22 C34          5.9950     0.0060    -4.1540 c3         1 29R      -0.134400
     23 C35          7.5010     0.0050    -4.1800 c          1 29R       0.975600
     24 O36          8.1240     0.0050    -3.1440 o          1 29R      -0.892800
     25 O37          8.1530     0.0070    -5.3540 o          1 29R      -0.892800
     26 CM7         -1.6380    -0.0030     4.2690 c3         1 29R      -0.033400
     27 HN1         -0.4980     0.0010    -0.8680 hn         1 29R       0.195500
     28 HN2          1.5150     0.0040    -2.0590 hn         1 29R       0.297800
     29 H8           0.8780    -0.1060     5.4820 h5         1 29R       0.198000
     30 H11          3.8720    -0.5890     3.2790 h1         1 29R       0.065200
     31 H11A         3.3880    -0.4360     4.9740 h1         1 29R       0.065200
     32 H12          3.7290     1.8650     3.0160 hc         1 29R       0.019700
     33 H12A         3.2440     2.0190     4.7110 hc         1 29R       0.019700
     34 H13          5.3850     1.0000     5.4150 hc         1 29R       0.030700
     35 H13A         5.8690     0.8460     3.7210 hc         1 29R       0.030700
     36 H14          5.7260     3.3000     3.4570 hc         1 29R       0.006700
     37 H14A         5.2420     3.4540     5.1510 hc         1 29R       0.006700
     38 H31          3.8640     0.8870    -0.7210 h1         1 29R       0.048200
     39 H31A         3.8650    -0.8820    -0.7220 h1         1 29R       0.048200
     40 H32          3.6110    -0.8810    -3.1810 hc         1 29R       0.009700
     41 H32A         3.6100     0.8880    -3.1800 hc         1 29R       0.009700
     42 H33          5.8790     0.8880    -2.1970 hc         1 29R       0.032200
     43 H33A         5.8790    -0.8810    -2.2000 hc         1 29R       0.032200
     44 H34          5.6240    -0.8770    -4.6590 hc         1 29R       0.003200
     45 H34A         5.6250     0.8920    -4.6570 hc         1 29R       0.003200
     46 HM7         -1.5810     0.0120     5.3510 h1         1 29R       0.048700
     47 HM7A        -2.1610    -0.8960     3.9470 h1         1 29R       0.048700
     48 HM7B        -2.1720     0.8730     3.9230 h1         1 29R       0.048700
@<TRIPOS>BOND
     1     1     2 1   
     2     1     7 1   
     3     1    27 1   
     4     2     3 1   
     5     2     4 2   
     6     3    19 1   
     7     3    28 1   
     8     4     5 1   
     9     5     6 2   
    10     5    11 1   
    11     6     7 1   
    12     6     9 1   
    13     7     8 2   
    14     9    10 2   
    15     9    26 1   
    16    10    11 1   
    17    10    29 1   
    18    11    12 1   
    19    12    13 1   
    20    12    30 1   
    21    12    31 1   
    22    13    14 1   
    23    13    32 1   
    24    13    33 1   
    25    14    15 1   
    26    14    34 1   
    27    14    35 1   
    28    15    16 1   
    29    15    36 1   
    30    15    37 1   
    31    16    17 1   
    32    16    18 1   
    33    19    20 1   
    34    19    38 1   
    35    19    39 1   
    36    20    21 1   
    37    20    40 1   
    38    20    41 1   
    39    21    22 1   
    40    21    42 1   
    41    21    43 1   
    42    22    23 1   
    43    22    44 1   
    44    22    45 1   
    45    23    24 1   
    46    23    25 1   
    47    26    46 1   
    48    26    47 1   
    49    26    48 1   
@<TRIPOS>SUBSTRUCTURE
     1 29R         1 TEMP              0 ****  ****    0 ROOT
