@<TRIPOS>MOLECULE
molecule
   69    73     1     0     0
SMALL
bcc


@<TRIPOS>ATOM
      1 CAE          0.0000     0.0000     0.0000 c3         1 29S       0.177800
      2 CAD          1.5440     0.0000     0.0000 c3         1 29S      -0.080900
      3 CAC          2.0360     0.0000     1.4250 c3         1 29S      -0.081400
      4 CAB          2.3000    -1.4200     1.9620 c3         1 29S      -0.081400
      5 CAA          1.2050    -2.4110     1.5310 c3         1 29S      -0.080900
      6 CAG         -0.1680    -1.7940     1.6180 c3         1 29S       0.177800
      7 NAF         -0.5180    -1.2680     0.2830 n3         1 29S      -0.737600
      8 CAH         -1.9710    -1.3030     0.0680 c3         1 29S       0.167800
      9 CAI         -2.2620    -1.3570    -1.4330 c3         1 29S       0.139400
     10 OAJ         -1.7460    -2.5750    -1.9740 os         1 29S      -0.309900
     11 CAK         -1.9230    -2.7820    -3.3060 ca         1 29S       0.155100
     12 CAL         -1.4470    -3.9420    -3.8970 ca         1 29S      -0.193500
     13 CAM         -1.6280    -4.1500    -5.2510 ca         1 29S      -0.069500
     14 CAP         -2.5860    -1.8350    -4.0740 ca         1 29S      -0.193500
     15 CAO         -2.7650    -2.0480    -5.4270 ca         1 29S      -0.069500
     16 CAN         -2.2840    -3.2040    -6.0150 ca         1 29S      -0.165300
     17 CAQ         -2.4800    -3.4330    -7.4920 c3         1 29S       0.097600
     18 NAR         -1.3410    -2.8760    -8.2270 na         1 29S      -0.060400
     19 CAS         -0.1870    -3.5640    -8.5440 ca         1 29S      -0.030200
     20 CBD          0.2400    -4.8650    -8.3020 ca         1 29S      -0.133000
     21 CBE          1.4740    -5.2800    -8.7530 ca         1 29S      -0.128000
     22 CBF          2.3050    -4.4060    -9.4500 ca         1 29S       0.070100
     23 OBI          3.5210    -4.8320    -9.8870 oh         1 29S      -0.521100
     24 CBG          1.9000    -3.1110    -9.7010 ca         1 29S      -0.104000
     25 CAT          0.6490    -2.6790    -9.2490 ca         1 29S      -0.088800
     26 CAU         -0.0740    -1.4120    -9.3380 cc         1 29S      -0.135400
     27 CBH          0.4080    -0.1480   -10.0030 c3         1 29S      -0.015900
     28 CAV         -1.2640    -1.5910    -8.7120 cd         1 29S       0.002700
     29 CAW         -2.3140    -0.5610    -8.5660 ca         1 29S      -0.038800
     30 CAX         -1.9720     0.7370    -8.1820 ca         1 29S      -0.105000
     31 CAY         -2.9540     1.6950    -8.0460 ca         1 29S      -0.154500
     32 CAZ         -4.2820     1.3710    -8.2920 ca         1 29S       0.106100
     33 OBC         -5.2470     2.3180    -8.1580 oh         1 29S      -0.523100
     34 CBA         -4.6260     0.0820    -8.6750 ca         1 29S      -0.154500
     35 CBB         -3.6490    -0.8810    -8.8170 ca         1 29S      -0.105000
     36 H1          -0.3510     0.3130    -0.9760 h1         1 29S       0.029200
     37 H2          -0.3520     0.6990     0.7490 h1         1 29S       0.029200
     38 H3           1.9050    -0.8870    -0.5070 hc         1 29S       0.053450
     39 H4           1.9050     0.8870    -0.5070 hc         1 29S       0.053450
     40 H5           1.2900     0.4760     2.0510 hc         1 29S       0.037450
     41 H6           2.9570     0.5680     1.4750 hc         1 29S       0.037450
     42 H7           3.2540    -1.7660     1.5840 hc         1 29S       0.037450
     43 H8           2.3350    -1.3850     3.0440 hc         1 29S       0.037450
     44 H9           1.2430    -3.2800     2.1770 hc         1 29S       0.053450
     45 H10          1.3900    -2.7170     0.5080 hc         1 29S       0.053450
     46 H11         -0.8880    -2.5480     1.9130 h1         1 29S       0.029200
     47 H12         -0.1600    -0.9860     2.3390 h1         1 29S       0.029200
     48 H14         -2.4210    -0.4120     0.4910 h1         1 29S       0.045700
     49 H15         -2.3870    -2.1800     0.5490 h1         1 29S       0.045700
     50 H16         -3.3330    -1.3150    -1.5940 h1         1 29S       0.037200
     51 H17         -1.7900    -0.5150    -1.9230 h1         1 29S       0.037200
     52 H18         -0.9330    -4.6850    -3.2990 ha         1 29S       0.141500
     53 H19         -1.2550    -5.0560    -5.7140 ha         1 29S       0.135000
     54 H20         -2.9620    -0.9300    -3.6130 ha         1 29S       0.141500
     55 H21         -3.2800    -1.3090    -6.0280 ha         1 29S       0.135000
     56 H22         -2.5500    -4.4960    -7.6860 h1         1 29S       0.065200
     57 H23         -3.3920    -2.9460    -7.8150 h1         1 29S       0.065200
     58 H24         -0.3980    -5.5530    -7.7610 ha         1 29S       0.126000
     59 H25          1.8010    -6.2950    -8.5620 ha         1 29S       0.139000
     60 H26          3.4430    -5.1520   -10.7700 ho         1 29S       0.412000
     61 H27          2.5480    -2.4330   -10.2440 ha         1 29S       0.140000
     62 H28         -0.4300     0.3570   -10.4690 hc         1 29S       0.040033
     63 H29          0.8550     0.5020    -9.2610 hc         1 29S       0.040033
     64 H30          1.1450    -0.3960   -10.7580 hc         1 29S       0.040033
     65 H31         -0.9360     0.9910    -7.9890 ha         1 29S       0.143500
     66 H32         -2.6900     2.7030    -7.7470 ha         1 29S       0.143500
     67 H33         -5.3660     2.7640    -8.9810 ho         1 29S       0.421000
     68 H34         -5.6630    -0.1670    -8.8680 ha         1 29S       0.143500
     69 H35         -3.9180    -1.8870    -9.1170 ha         1 29S       0.143500
@<TRIPOS>BOND
     1     4     3 1
     2     4     5 1
     3     3     2 1
     4     5     6 1
     5     2     1 1
     6     6     7 1
     7     1     7 1
     8     7     8 1
     9    23    22 1
    10     8     9 1
    11    22    24 ar
    12    22    21 ar
    13    10     9 1
    14    10    11 1
    15    24    25 ar
    16    14    11 ar
    17    14    15 ar
    18    21    20 ar
    19    11    12 ar
    20    25    26 1
    21    25    19 ar
    22    15    16 ar
    23    27    26 1
    24    20    19 ar
    25    26    28 2
    26    19    18 1
    27    12    13 ar
    28    28    18 1
    29    28    29 1
    30    16    13 ar
    31    16    17 1
    32    18    17 1
    33    35    29 ar
    34    35    34 ar
    35    29    30 ar
    36    34    32 ar
    37    30    31 ar
    38    32    33 1
    39    32    31 ar
    40     1    36 1
    41     1    37 1
    42     2    38 1
    43     2    39 1
    44     3    40 1
    45     3    41 1
    46     4    42 1
    47     4    43 1
    48     5    44 1
    49     5    45 1
    50     6    46 1
    51     6    47 1
    52     8    48 1
    53     8    49 1
    54     9    50 1
    55     9    51 1
    56    12    52 1
    57    13    53 1
    58    14    54 1
    59    15    55 1
    60    17    56 1
    61    17    57 1
    62    20    58 1
    63    21    59 1
    64    23    60 1
    65    24    61 1
    66    27    62 1
    67    27    63 1
    68    27    64 1
    69    30    65 1
    70    31    66 1
    71    33    67 1
    72    34    68 1
    73    35    69 1
@<TRIPOS>SUBSTRUCTURE
     1 29S         1 TEMP              0 ****  ****    0 ROOT
