@<TRIPOS>MOLECULE
29S
   69    73     1     0     0
SMALL
bcc


@<TRIPOS>ATOM
      1 CAE          0.0000     0.0000     0.0000 c3         1 29S       0.148800
      2 CAD          1.5440     0.0000     0.0000 c3         1 29S      -0.033400
      3 CAC          2.0360     0.0000     1.4250 c3         1 29S      -0.026900
      4 CAB          2.3000    -1.4200     1.9620 c3         1 29S      -0.026900
      5 CAA          1.2050    -2.4110     1.5310 c3         1 29S      -0.033400
      6 CAG         -0.1680    -1.7940     1.6180 c3         1 29S       0.148800
      7 NAF         -0.5180    -1.2680     0.2830 n3         1 29S      -0.521600
      8 CAH         -1.9710    -1.3030     0.0680 c3         1 29S       0.141800
      9 CAI         -2.2620    -1.3570    -1.4330 c3         1 29S       0.196400
     10 OAJ         -1.7460    -2.5750    -1.9740 os         1 29S      -0.286900
     11 CAK         -1.9230    -2.7820    -3.3060 ca         1 29S       0.163100
     12 CAL         -1.4470    -3.9420    -3.8970 ca         1 29S      -0.178000
     13 CAM         -1.6280    -4.1500    -5.2510 ca         1 29S      -0.041000
     14 CAP         -2.5860    -1.8350    -4.0740 ca         1 29S      -0.178000
     15 CAO         -2.7650    -2.0480    -5.4270 ca         1 29S      -0.041000
     16 CAN         -2.2840    -3.2040    -6.0150 ca         1 29S      -0.177300
     17 CAQ         -2.4800    -3.4330    -7.4920 c3         1 29S       0.005600
     18 NAR         -1.3410    -2.8760    -8.2270 na         1 29S       0.412600
     19 CAS         -0.1870    -3.5640    -8.5440 ca         1 29S      -0.212200
     20 CBD          0.2400    -4.8650    -8.3020 ca         1 29S      -0.090000
     21 CBE          1.4740    -5.2800    -8.7530 ca         1 29S      -0.116000
     22 CBF          2.3050    -4.4060    -9.4500 ca         1 29S       0.090100
     23 OBI          3.5210    -4.8320    -9.8870 oh         1 29S      -0.500100
     24 CBG          1.9000    -3.1110    -9.7010 ca         1 29S      -0.085000
     25 CAT          0.6490    -2.6790    -9.2490 ca         1 29S      -0.079800
     26 CAU         -0.0740    -1.4120    -9.3380 cc         1 29S      -0.139400
     27 CBH          0.4080    -0.1480   -10.0030 c3         1 29S       0.097100
     28 CAV         -1.2640    -1.5910    -8.7120 cd         1 29S      -0.169300
     29 CAW         -2.3140    -0.5610    -8.5660 ca         1 29S      -0.026800
     30 CAX         -1.9720     0.7370    -8.1820 ca         1 29S      -0.084000
     31 CAY         -2.9540     1.6950    -8.0460 ca         1 29S      -0.135500
     32 CAZ         -4.2820     1.3710    -8.2920 ca         1 29S       0.122100
     33 OBC         -5.2470     2.3180    -8.1580 oh         1 29S      -0.501100
     34 CBA         -4.6260     0.0820    -8.6750 ca         1 29S      -0.135500
     35 CBB         -3.6490    -0.8810    -8.8170 ca         1 29S      -0.084000
     36 H1          -0.3510     0.3130    -0.9760 h1         1 29S       0.009450
     37 H2          -0.3520     0.6990     0.7490 h1         1 29S       0.009450
     38 H3           1.9050    -0.8870    -0.5070 hc         1 29S       0.026200
     39 H4           1.9050     0.8870    -0.5070 hc         1 29S       0.026200
     40 H5           1.2900     0.4760     2.0510 hc         1 29S       0.010950
     41 H6           2.9570     0.5680     1.4750 hc         1 29S       0.010950
     42 H7           3.2540    -1.7660     1.5840 hc         1 29S       0.010950
     43 H8           2.3350    -1.3850     3.0440 hc         1 29S       0.010950
     44 H9           1.2430    -3.2800     2.1770 hc         1 29S       0.026200
     45 H10          1.3900    -2.7170     0.5080 hc         1 29S       0.026200
     46 H11         -0.8880    -2.5480     1.9130 h1         1 29S       0.009450
     47 H12         -0.1600    -0.9860     2.3390 h1         1 29S       0.009450
     48 H14         -2.4210    -0.4120     0.4910 h1         1 29S       0.018700
     49 H15         -2.3870    -2.1800     0.5490 h1         1 29S       0.018700
     50 H16         -3.3330    -1.3150    -1.5940 h1         1 29S       0.005200
     51 H17         -1.7900    -0.5150    -1.9230 h1         1 29S       0.005200
     52 H18         -0.9330    -4.6850    -3.2990 ha         1 29S       0.121000
     53 H19         -1.2550    -5.0560    -5.7140 ha         1 29S       0.109000
     54 H20         -2.9620    -0.9300    -3.6130 ha         1 29S       0.121000
     55 H21         -3.2800    -1.3090    -6.0280 ha         1 29S       0.109000
     56 H22         -2.5500    -4.4960    -7.6860 h1         1 29S       0.041200
     57 H23         -3.3920    -2.9460    -7.8150 h1         1 29S       0.041200
     58 H24         -0.3980    -5.5530    -7.7610 ha         1 29S       0.101000
     59 H25          1.8010    -6.2950    -8.5620 ha         1 29S       0.111000
     60 H26          3.4430    -5.1520   -10.7700 ho         1 29S       0.396000
     61 H27          2.5480    -2.4330   -10.2440 ha         1 29S       0.112000
     62 H28         -0.4300     0.3570   -10.4690 hc         1 29S       0.004367
     63 H29          0.8550     0.5020    -9.2610 hc         1 29S       0.004367
     64 H30          1.1450    -0.3960   -10.7580 hc         1 29S       0.004367
     65 H31         -0.9360     0.9910    -7.9890 ha         1 29S       0.116500
     66 H32         -2.6900     2.7030    -7.7470 ha         1 29S       0.115000
     67 H33         -5.3660     2.7640    -8.9810 ho         1 29S       0.404000
     68 H34         -5.6630    -0.1670    -8.8680 ha         1 29S       0.115000
     69 H35         -3.9180    -1.8870    -9.1170 ha         1 29S       0.116500
@<TRIPOS>BOND
     1     1     2 1   
     2     1     7 1   
     3     1    36 1   
     4     1    37 1   
     5     2     3 1   
     6     2    38 1   
     7     2    39 1   
     8     3     4 1   
     9     3    40 1   
    10     3    41 1   
    11     4     5 1   
    12     4    42 1   
    13     4    43 1   
    14     5     6 1   
    15     5    44 1   
    16     5    45 1   
    17     6     7 1   
    18     6    46 1   
    19     6    47 1   
    20     7     8 1   
    21     8     9 1   
    22     8    48 1   
    23     8    49 1   
    24     9    10 1   
    25     9    50 1   
    26     9    51 1   
    27    10    11 1   
    28    11    12 ar  
    29    11    14 ar  
    30    12    13 ar  
    31    12    52 1   
    32    13    16 ar  
    33    13    53 1   
    34    14    15 ar  
    35    14    54 1   
    36    15    16 ar  
    37    15    55 1   
    38    16    17 1   
    39    17    18 1   
    40    17    56 1   
    41    17    57 1   
    42    18    19 1   
    43    18    28 1   
    44    19    20 ar  
    45    19    25 ar  
    46    20    21 ar  
    47    20    58 1   
    48    21    22 ar  
    49    21    59 1   
    50    22    23 1   
    51    22    24 ar  
    52    23    60 1   
    53    24    25 ar  
    54    24    61 1   
    55    25    26 1   
    56    26    27 1   
    57    26    28 2   
    58    27    62 1   
    59    27    63 1   
    60    27    64 1   
    61    28    29 1   
    62    29    30 ar  
    63    29    35 ar  
    64    30    31 ar  
    65    30    65 1   
    66    31    32 ar  
    67    31    66 1   
    68    32    33 1   
    69    32    34 ar  
    70    33    67 1   
    71    34    35 ar  
    72    34    68 1   
    73    35    69 1   
@<TRIPOS>SUBSTRUCTURE
     1 29S         1 TEMP              0 ****  ****    0 ROOT
