@<TRIPOS>MOLECULE
29T
   45    49     1     0     0
SMALL
bcc


@<TRIPOS>ATOM
      1 C10          0.0000     0.0000     0.0000 c2         1 29T      -0.141000
      2 C11          1.8230     0.0000     1.3180 c2         1 29T      -0.365000
      3 C14          1.4110     0.0000     0.0000 c2         1 29T      -0.015000
      4 C16          2.2610    -0.0020    -1.1540 c1         1 29T      -0.061000
      5 C00         -4.3890    -2.2400    -1.2490 ca         1 29T      -0.187000
      6 C01         -3.5910    -3.3600    -1.1120 ca         1 29T      -0.071000
      7 C02         -2.5320    -3.3540    -0.2220 ca         1 29T      -0.089000
      8 C03         -2.2670    -2.2290     0.5350 ca         1 29T      -0.186000
      9 C04         -3.0640    -1.1020     0.4030 ca         1 29T       0.052000
     10 C05         -4.1290    -1.1080    -0.4920 ca         1 29T       0.084000
     11 C0C         -1.6870     0.0090     1.9180 c2         1 29T       0.108000
     12 C0V         -0.4030     0.0070     1.3200 c2         1 29T      -0.292000
     13 N0W          0.7230     0.0110     2.1150 na         1 29T       0.677000
     14 C0X          0.5940     0.0170     3.4840 c2         1 29T      -0.324000
     15 C0Y         -0.6210     0.0200     4.0630 c2         1 29T      -0.039000
     16 C0Z         -1.7890     0.0170     3.2780 c2         1 29T      -0.194000
     17 N19          2.9490    -0.0100    -2.0570 n1         1 29T      -0.070000
     18 O0B         -4.9110    -0.0040    -0.6300 os         1 29T      -0.156000
     19 C0D         -5.9830    -0.0790    -1.5720 c3         1 29T      -0.116000
     20 C0E         -6.7430     1.2480    -1.5870 c3         1 29T      -0.349000
     21 N0H         -5.8640     2.3090    -2.0840 nx         1 29T       0.644000
     22 C0K         -5.1040     3.0050    -1.2190 c2         1 29T       0.008000
     23 N0M         -4.2870     3.9850    -1.6480 ns         1 29T       0.102000
     24 C0N         -4.2200     4.2860    -2.9610 c2         1 29T       0.229000
     25 C0O         -5.0140     3.5620    -3.8820 c2         1 29T      -0.285000
     26 C0P         -5.8200     2.5800    -3.4250 c2         1 29T      -0.174000
     27 O0Q         -5.1560     2.7440    -0.0330 o          1 29T      -0.390000
     28 O0S         -3.4820     5.1740    -3.3500 o          1 29T      -0.369000
     29 H1          -0.4550    -0.4710    -0.8630 ha         1 29T       0.144000
     30 H2           2.8880    -0.0820     1.4950 h4         1 29T       0.171000
     31 H3          -4.9990    -2.2090    -2.1430 ha         1 29T       0.124000
     32 H4          -3.6490    -3.9670    -2.0080 ha         1 29T       0.106000
     33 H5          -1.6470    -3.9570    -0.0580 ha         1 29T       0.115000
     34 H6          -1.4600    -2.1450     1.2520 ha         1 29T       0.128000
     35 H7           1.1320    -0.2250     4.3930 h4         1 29T       0.176000
     36 H8          -0.7530     0.1110     5.1340 ha         1 29T       0.117000
     37 H9          -2.8720    -0.0100     3.2460 ha         1 29T       0.161000
     38 H10         -6.0850     0.4190    -2.5290 h1         1 29T       0.134000
     39 H11         -6.3330    -1.0960    -1.4440 h1         1 29T       0.134000
     40 H12         -7.5880     1.4120    -0.9300 hx         1 29T       0.126000
     41 H13         -5.9420     1.9730    -1.6600 DU         1 29T      -0.030000
     42 H14         -3.7440     4.3870    -0.9100 hn         1 29T       0.123000
     43 H15         -4.7720     3.9510    -4.8640 ha         1 29T       0.167000
     44 H16         -5.8830     2.0650    -4.3760 hx         1 29T       0.175000
     45 O0A         -2.8050     0.0060     1.1470 os         1 29T      -0.099000
@<TRIPOS>BOND
     1     1     3 1   
     2     1    12 1   
     3     1    29 1   
     4     2     3 1   
     5     2    13 1   
     6     2    30 1   
     7     3     4 1   
     8     4    17 1   
     9     5     6 1   
    10     5    10 1   
    11     5    31 1   
    12     6     7 1   
    13     6    32 1   
    14     7     8 1   
    15     7    33 1   
    16     8     9 1   
    17     8    34 1   
    18     9    10 1   
    19     9    45 1   
    20    10    18 1   
    21    11    12 1   
    22    11    16 1   
    23    11    45 1   
    24    12    13 1   
    25    13    14 1   
    26    14    15 1   
    27    14    35 1   
    28    15    16 1   
    29    15    36 1   
    30    16    37 1   
    31    18    19 1   
    32    19    20 1   
    33    19    38 1   
    34    19    39 1   
    35    20    21 1   
    36    20    40 1   
    37    20    41 1   
    38    21    22 1   
    39    21    26 1   
    40    21    41 1   
    41    22    23 1   
    42    22    27 1   
    43    23    24 1   
    44    23    42 1   
    45    24    25 1   
    46    24    28 1   
    47    25    26 1   
    48    25    43 1   
    49    26    44 1   
@<TRIPOS>SUBSTRUCTURE
     1 29T         1 TEMP              0 ****  ****    0 ROOT
