@<TRIPOS>MOLECULE
molecule
   45    48     1     0     0
SMALL
bcc


@<TRIPOS>ATOM
      1 C10          0.0000     0.0000     0.0000 cc         1 29T      -0.161000
      2 C11          1.8230     0.0000     1.3180 cd         1 29T      -0.161100
      3 C14          1.4110     0.0000     0.0000 cc         1 29T      -0.045700
      4 C16          2.2610    -0.0020    -1.1540 cg         1 29T       0.234500
      5 C00         -4.3890    -2.2400    -1.2490 ca         1 29T      -0.203000
      6 C01         -3.5910    -3.3600    -1.1120 ca         1 29T      -0.103000
      7 C02         -2.5320    -3.3540    -0.2220 ca         1 29T      -0.127000
      8 C03         -2.2670    -2.2290     0.5350 ca         1 29T      -0.187000
      9 C04         -3.0640    -1.1020     0.4030 ca         1 29T       0.087100
     10 C05         -4.1290    -1.1080    -0.4920 ca         1 29T       0.135100
     11 C0C         -1.6870     0.0090     1.9180 cd         1 29T       0.112100
     12 C0V         -0.4030     0.0070     1.3200 cd         1 29T      -0.093300
     13 N0W          0.7230     0.0110     2.1150 na         1 29T       0.117700
     14 C0X          0.5940     0.0170     3.4840 cd         1 29T      -0.121300
     15 C0Y         -0.6210     0.0200     4.0630 cc         1 29T      -0.128000
     16 C0Z         -1.7890     0.0170     3.2780 cc         1 29T      -0.174000
     17 N19          2.9490    -0.0100    -2.0570 n1         1 29T      -0.372800
     18 O0B         -4.9110    -0.0040    -0.6300 os         1 29T      -0.317900
     19 C0D         -5.9830    -0.0790    -1.5720 c3         1 29T      -0.006600
     20 C0E         -6.7430     1.2480    -1.5870 c3         1 29T      -0.336000
     21 N0H         -5.8640     2.3090    -2.0840 n          1 29T      -0.194000
     22 C0K         -5.1040     3.0050    -1.2190 c          1 29T       0.678500
     23 N0M         -4.2870     3.9850    -1.6480 ns         1 29T      -0.552500
     24 C0N         -4.2200     4.2860    -2.9610 c          1 29T       0.686700
     25 C0O         -5.0140     3.5620    -3.8820 cd         1 29T      -0.324200
     26 C0P         -5.8200     2.5800    -3.4250 cc         1 29T       0.048600
     27 O0Q         -5.1560     2.7440    -0.0330 o          1 29T      -0.581500
     28 O0S         -3.4820     5.1740    -3.3500 o          1 29T      -0.597500
     29 H1          -0.4550    -0.4710    -0.8630 ha         1 29T       0.172000
     30 H2           2.8880    -0.0820     1.4950 h4         1 29T       0.192000
     31 H3          -4.9990    -2.2090    -2.1430 ha         1 29T       0.145000
     32 H4          -3.6490    -3.9670    -2.0080 ha         1 29T       0.134000
     33 H5          -1.6470    -3.9570    -0.0580 ha         1 29T       0.142000
     34 H6          -1.4600    -2.1450     1.2520 ha         1 29T       0.148000
     35 H7           1.1320    -0.2250     4.3930 h4         1 29T       0.196000
     36 H8          -0.7530     0.1110     5.1340 ha         1 29T       0.155000
     37 H9          -2.8720    -0.0100     3.2460 ha         1 29T       0.184000
     38 H10         -6.0850     0.4190    -2.5290 h1         1 29T       0.128700
     39 H11         -6.3330    -1.0960    -1.4440 h1         1 29T       0.128700
     40 H12         -7.5880     1.4120    -0.9300 h1         1 29T       0.199200
     41 H13         -5.9420     1.9730    -1.6600 h1         1 29T       0.199200
     42 H14         -3.7440     4.3870    -0.9100 hn         1 29T       0.367500
     43 H15         -4.7720     3.9510    -4.8640 ha         1 29T       0.202000
     44 H16         -5.8830     2.0650    -4.3760 h4         1 29T       0.212000
     45 O0A         -2.8050     0.0060     1.1470 os         1 29T      -0.218200
@<TRIPOS>BOND
     1     6     5 ar
     2     6     7 ar
     3     5    10 ar
     4     7     8 ar
     5    27    22 2
     6    19    18 1
     7    19    20 1
     8    10    18 1
     9    10     9 ar
    10     8     9 ar
    11    22    23 1
    12    22    21 1
    13    20    21 1
    14     9    45 1
    15    23    24 1
    16    21    26 1
    17    45    11 1
    18    24    28 2
    19    24    25 1
    20    26    25 2
    21    16    11 2
    22    16    15 1
    23    11    12 1
    24    15    14 2
    25    12    13 1
    26    12     1 2
    27    14    13 1
    28    13     2 1
    29     1     3 1
    30     2     3 2
    31     3     4 1
    32     4    17 3
    33     1    29 1
    34     2    30 1
    35     5    31 1
    36     6    32 1
    37     7    33 1
    38     8    34 1
    39    14    35 1
    40    15    36 1
    41    16    37 1
    42    19    38 1
    43    19    39 1
    44    20    40 1
    45    20    41 1
    46    23    42 1
    47    25    43 1
    48    26    44 1
@<TRIPOS>SUBSTRUCTURE
     1 29T         1 TEMP              0 ****  ****    0 ROOT
