@<TRIPOS>MOLECULE
29U
   51    52     1     0     0
SMALL
bcc


@<TRIPOS>ATOM
      1 N13          0.0000     0.0000     0.0000 nz         1 29U       0.096400
      2 C5           1.4690     0.0000     0.0000 c3         1 29U      -0.159500
      3 C14          1.9720     0.0000     1.4210 c          1 29U       0.595100
      4 O32          1.2440    -0.3590     2.3220 o          1 29U      -0.632100
      5 C33          1.9780    -1.2500    -0.7210 c3         1 29U      -0.037400
      6 C48          1.5730    -1.1880    -2.1950 c3         1 29U      -0.011100
      7 N1           3.2300     0.3990     1.6900 n          1 29U      -0.075800
      8 C1           3.8470     0.4480     3.0240 c3         1 29U      -0.044300
      9 C7           3.0570     1.3660     3.9200 c          1 29U       0.573100
     10 O22          2.0710     1.9300     3.4930 o          1 29U      -0.637100
     11 C2           5.2810     0.9900     2.8460 c3         1 29U      -0.027400
     12 C3           5.2010     1.7470     1.4940 c3         1 29U      -0.022400
     13 C4           4.2200     0.8520     0.6950 c3         1 29U       0.028000
     14 N23          3.4450     1.5620     5.1960 ns         1 29U      -0.186900
     15 C24          2.6770     2.4550     6.0660 c3         1 29U       0.103300
     16 C25          3.3150     2.4990     7.4300 ca         1 29U      -0.076300
     17 C30          2.9240     1.5970     8.4050 ca         1 29U      -0.052500
     18 C29          3.5100     1.6290     9.6530 ca         1 29U      -0.071000
     19 C28          4.4910     2.5790     9.9370 ca         1 29U      -0.214900
     20 C21          5.1190     2.6220    11.2770 ce         1 29U       0.201800
     21 N46          6.0350     3.5110    11.5380 n2         1 29U      -0.465100
     22 N47          4.7350     1.7230    12.2470 nz         1 29U       0.191400
     23 C27          4.8770     3.4890     8.9530 ca         1 29U      -0.071000
     24 C26          4.2880     3.4440     7.7060 ca         1 29U      -0.052500
     25 HN13        -0.3340    -0.8990     0.2870 hn         1 29U       0.231467
     26 HN1A        -0.3340     0.2010    -0.9220 hn         1 29U       0.231467
     27 H5           1.8300     0.8840    -0.5110 hx         1 29U       0.101700
     28 H33          3.0580    -1.2960    -0.6450 hc         1 29U       0.054700
     29 H33A         1.5460    -2.1310    -0.2640 hc         1 29U       0.054700
     30 H48          2.2420    -1.8090    -2.7790 hc         1 29U       0.023367
     31 H48A         0.5570    -1.5480    -2.3060 hc         1 29U       0.023367
     32 H48B         1.6340    -0.1650    -2.5440 hc         1 29U       0.023367
     33 H1           3.8820    -0.5480     3.4480 h1         1 29U       0.057700
     34 H2           5.9920     0.1750     2.7850 hc         1 29U       0.037700
     35 H2A          5.5340     1.6700     3.6500 hc         1 29U       0.037700
     36 H3           4.7920     2.7410     1.6320 hc         1 29U       0.044200
     37 H3A          6.1710     1.7820     1.0140 hc         1 29U       0.044200
     38 H4           4.7450     0.0030     0.2740 h1         1 29U       0.029700
     39 H4A          3.7340     1.4280    -0.0830 h1         1 29U       0.029700
     40 HN23         4.2310     1.0620     5.5620 hn         1 29U       0.178500
     41 H24          1.6610     2.0890     6.1540 h1         1 29U       0.044200
     42 H24A         2.6650     3.4520     5.6410 h1         1 29U       0.044200
     43 H30          2.1620     0.8600     8.1840 ha         1 29U       0.130500
     44 H29          3.2020     0.9230    10.4150 ha         1 29U       0.104000
     45 HN46         6.3140     4.1650    10.8340 hn         1 29U       0.380400
     46 HN47         5.2570     1.8910    13.0840 hn         1 29U       0.223800
     47 HN4A         4.9110     0.7910    11.9270 hn         1 29U       0.223800
     48 H27          5.6390     4.2290     9.1670 ha         1 29U       0.104000
     49 H26          4.5870     4.1500     6.9410 ha         1 29U       0.130500
     50 H133        -0.3340     0.7090     0.6230 hn         1 29U       0.231467
     51 H473         3.7600     1.8370    12.4410 hn         1 29U       0.223800
@<TRIPOS>BOND
     1     1     2 1   
     2     1    25 1   
     3     1    26 1   
     4     1    50 1   
     5     2     3 1   
     6     2     5 1   
     7     2    27 1   
     8     3     4 2   
     9     3     7 1   
    10     5     6 1   
    11     5    28 1   
    12     5    29 1   
    13     6    30 1   
    14     6    31 1   
    15     6    32 1   
    16     7     8 1   
    17     7    13 1   
    18     8     9 1   
    19     8    11 1   
    20     8    33 1   
    21     9    10 2   
    22     9    14 1   
    23    11    12 1   
    24    11    34 1   
    25    11    35 1   
    26    12    13 1   
    27    12    36 1   
    28    12    37 1   
    29    13    38 1   
    30    13    39 1   
    31    14    15 1   
    32    14    40 1   
    33    15    16 1   
    34    15    41 1   
    35    15    42 1   
    36    16    17 ar  
    37    16    24 ar  
    38    17    18 ar  
    39    17    43 1   
    40    18    19 ar  
    41    18    44 1   
    42    19    20 1   
    43    19    23 ar  
    44    20    21 2   
    45    20    22 1   
    46    21    45 1   
    47    22    46 1   
    48    22    47 1   
    49    22    51 1   
    50    23    24 ar  
    51    23    48 1   
    52    24    49 1   
@<TRIPOS>SUBSTRUCTURE
     1 29U         1 TEMP              0 ****  ****    0 ROOT
