@<TRIPOS>MOLECULE
molecule
   51    52     1     0     0
SMALL
bcc


@<TRIPOS>ATOM
      1 N13          0.0000     0.0000     0.0000 nz         1 29U      -0.794600
      2 C5           1.4690     0.0000     0.0000 c3         1 29U       0.030500
      3 C14          1.9720     0.0000     1.4210 c          1 29U       0.671100
      4 O32          1.2440    -0.3590     2.3220 o          1 29U      -0.585100
      5 C33          1.9780    -1.2500    -0.7210 c3         1 29U      -0.108400
      6 C48          1.5730    -1.1880    -2.1950 c3         1 29U      -0.115100
      7 N1           3.2300     0.3990     1.6900 n          1 29U      -0.452800
      8 C1           3.8470     0.4480     3.0240 c3         1 29U       0.041700
      9 C7           3.0570     1.3660     3.9200 c          1 29U       0.658100
     10 O22          2.0710     1.9300     3.4930 o          1 29U      -0.594100
     11 C2           5.2810     0.9900     2.8460 c3         1 29U      -0.091400
     12 C3           5.2010     1.7470     1.4940 c3         1 29U      -0.087400
     13 C4           4.2200     0.8520     0.6950 c3         1 29U       0.080000
     14 N23          3.4450     1.5620     5.1960 ns         1 29U      -0.583900
     15 C24          2.6770     2.4550     6.0660 c3         1 29U       0.153300
     16 C25          3.3150     2.4990     7.4300 ca         1 29U      -0.067300
     17 C30          2.9240     1.5970     8.4050 ca         1 29U      -0.100000
     18 C29          3.5100     1.6290     9.6530 ca         1 29U      -0.084000
     19 C28          4.4910     2.5790     9.9370 ca         1 29U      -0.182900
     20 C21          5.1190     2.6220    11.2770 ce         1 29U       0.535800
     21 N46          6.0350     3.5110    11.5380 n2         1 29U      -0.670100
     22 N47          4.7350     1.7230    12.2470 nz         1 29U      -0.801600
     23 C27          4.8770     3.4890     8.9530 ca         1 29U      -0.084000
     24 C26          4.2880     3.4440     7.7060 ca         1 29U      -0.100000
     25 HN13        -0.3340    -0.8990     0.2870 hn         1 29U       0.465133
     26 HN1A        -0.3340     0.2010    -0.9220 hn         1 29U       0.465133
     27 H5           1.8300     0.8840    -0.5110 hx         1 29U       0.124700
     28 H33          3.0580    -1.2960    -0.6450 hc         1 29U       0.090700
     29 H33A         1.5460    -2.1310    -0.2640 hc         1 29U       0.090700
     30 H48          0.5570    -1.5480    -2.3060 hc         1 29U       0.059367
     31 H48A         1.6340    -0.1650    -2.5440 hc         1 29U       0.059367
     32 H48B         2.2420    -1.8090    -2.7790 hc         1 29U       0.059367
     33 H1           3.8820    -0.5480     3.4480 h1         1 29U       0.089700
     34 H2           5.9920     0.1750     2.7850 hc         1 29U       0.073700
     35 H2A          5.5340     1.6700     3.6500 hc         1 29U       0.073700
     36 H3           6.1710     1.7820     1.0140 hc         1 29U       0.079700
     37 H3A          4.7920     2.7410     1.6320 hc         1 29U       0.079700
     38 H4           4.7450     0.0030     0.2740 h1         1 29U       0.058200
     39 H4A          3.7340     1.4280    -0.0830 h1         1 29U       0.058200
     40 HN23         4.2310     1.0620     5.5620 hn         1 29U       0.320500
     41 H24          2.6650     3.4520     5.6410 h1         1 29U       0.076200
     42 H24A         1.6610     2.0890     6.1540 h1         1 29U       0.076200
     43 H30          2.1620     0.8600     8.1840 ha         1 29U       0.164500
     44 H29          3.2020     0.9230    10.4150 ha         1 29U       0.145000
     45 HN46         6.4600     3.5420    12.4440 hn         1 29U       0.441400
     46 HN47         3.7580     1.8320    12.4360 hn         1 29U       0.467467
     47 HN4A         4.9100     0.7910    11.9270 hn         1 29U       0.467467
     48 H27          5.6390     4.2290     9.1670 ha         1 29U       0.145000
     49 H26          4.5870     4.1500     6.9410 ha         1 29U       0.164500
     50 H133        -0.3340     0.7090     0.6230 hn         1 29U       0.465133
     51 H473         5.2620     1.8860    13.0820 hn         1 29U       0.467467
@<TRIPOS>BOND
     1     8     7 1   
     2    13     7 1   
     3     7     3 1   
     4    11     8 1   
     5     9     8 1   
     6     8    33 1   
     7    10     9 2   
     8     9    14 1   
     9    15    14 1   
    10    14    40 1   
    11    15    16 1   
    12    15    41 1   
    13    15    42 1   
    14    16    24 ar  
    15    16    17 ar  
    16    24    23 ar  
    17    24    49 1   
    18    23    19 ar  
    19    23    48 1   
    20    18    19 ar  
    21    19    20 1   
    22    20    21 2   
    23    20    22 1   
    24    21    45 1   
    25    22    46 1   
    26    22    47 1   
    27    17    18 ar  
    28    18    44 1   
    29    17    43 1   
    30    11    12 1   
    31    11    34 1   
    32    11    35 1   
    33    12    13 1   
    34    12    36 1   
    35    12    37 1   
    36    13    38 1   
    37    13    39 1   
    38     3     4 2   
    39     3     2 1   
    40     1     2 1   
    41     2     5 1   
    42     2    27 1   
    43     1    25 1   
    44     1    26 1   
    45     5     6 1   
    46     5    28 1   
    47     6    30 1   
    48     6    31 1   
    49     6    32 1   
    50     5    29 1   
    51    50     1 1   
    52    51    22 1   
@<TRIPOS>SUBSTRUCTURE
     1 29U         1 TEMP              0 ****  ****    0 ROOT
