@<TRIPOS>MOLECULE
29V
   48    49     1     0     0
SMALL
bcc


@<TRIPOS>ATOM
      1 C4'         0.1520    0.5370   -0.4290 c3        1 29V     -0.087100
      2 C1'         2.5890    0.2710   -0.0830 c3        1 29V     -0.071400
      3 C2'         3.7040    0.1420    0.9310 c3        1 29V     -0.037200
      4 C8          4.6170    1.9920    2.3220 ce        1 29V     -0.079000
      5 C5          1.1080    0.8650    1.8610 ca        1 29V     -0.063300
      6 C6          2.2420    1.3630    2.5360 ca        1 29V     -0.022800
      7 C4         -0.1570    1.0180    2.4430 ca        1 29V     -0.135000
      8 C2          0.8070    2.1440    4.3410 ca        1 29V     -0.136000
      9 C18         1.2200    0.1210    0.5660 c3        1 29V     -0.019400
     10 C3         -0.3130    1.6580    3.6690 ca        1 29V     -0.139000
     11 C1          2.0710    1.9920    3.7800 ca        1 29V     -0.126000
     12 C7          3.5810    1.2090    1.9660 cf        1 29V     -0.087400
     13 C9          5.9860    1.8660    1.8330 ce        1 29V     -0.157200
     14 C19         6.7210    0.6480    2.2640 c3        1 29V     -0.043900
     15 C10         6.5820    2.8180    1.0950 c2        1 29V     -0.103200
     16 C11         5.9280    4.0710    0.6400 c3        1 29V     -0.003000
     17 C12         6.9010    5.1790    0.4790 c2        1 29V     -0.265200
     18 C13         7.5710    5.4680   -0.6500 c2        1 29V     -0.022400
     19 C20         7.4250    4.6940   -1.9070 c3        1 29V     -0.084900
     20 C14         8.5210    6.6070   -0.7180 c3        1 29V     -0.183200
     21 C15         9.9920    6.1440   -0.8750 c         1 29V      0.918600
     22 O1         10.3410    5.6280   -1.9760 o         1 29V     -0.840800
     23 O2         10.7720    6.3430    0.0960 o         1 29V     -0.840800
     24 H1         -0.8570    0.1850   -0.1050 hc        1 29V      0.033700
     25 H2          0.1250    1.6470   -0.5350 hc        1 29V      0.033700
     26 H3          0.3700    0.0900   -1.4300 hc        1 29V      0.033700
     27 H4          2.7060   -0.5140   -0.8750 hc        1 29V      0.045200
     28 H5          2.6580    1.2710   -0.5870 hc        1 29V      0.045200
     29 H6          3.6580   -0.8650    1.4270 hc        1 29V      0.051700
     30 H7          4.6940    0.2160    0.4060 hc        1 29V      0.051700
     31 H8          4.4730    2.8210    3.0390 ha        1 29V      0.124000
     32 H9         -1.0450    0.6250    1.9260 ha        1 29V      0.124000
     33 H10         0.6950    2.6460    5.3130 ha        1 29V      0.125000
     34 H11         1.0710   -0.9720    0.8100 hc        1 29V      0.048700
     35 H12        -1.3140    1.7740    4.1060 ha        1 29V      0.122000
     36 H13         2.9500    2.3640    4.3290 ha        1 29V      0.135000
     37 H14         7.6830    0.5380    1.7050 hc        1 29V      0.034367
     38 H15         6.9550    0.7120    3.3560 hc        1 29V      0.034367
     39 H16         6.1020   -0.2680    2.0940 hc        1 29V      0.034367
     40 H17         7.6330    2.7000    0.7740 ha        1 29V      0.145000
     41 H18         5.1300    4.3770    1.3720 hc        1 29V      0.039200
     42 H19         5.4060    3.8620   -0.3370 hc        1 29V      0.039200
     43 H20         7.0740    5.7760    1.3890 ha        1 29V      0.117000
     44 H21         6.6600    5.1770   -2.5650 hc        1 29V      0.047033
     45 H22         7.1090    3.6410   -1.7110 hc        1 29V      0.047033
     46 H23         8.4110    4.6830   -2.4480 hc        1 29V      0.047033
     47 H24         8.2730    7.2380   -1.6110 hc        1 29V      0.034200
     48 H25         8.4480    7.2440    0.2000 hc        1 29V      0.034200
@<TRIPOS>BOND
     1    1    9 1   
     2    1   24 1   
     3    1   25 1   
     4    1   26 1   
     5    2    3 1   
     6    2    9 1   
     7    2   27 1   
     8    2   28 1   
     9    3   12 1   
    10    3   29 1   
    11    3   30 1   
    12    4   12 2   
    13    4   13 1   
    14    4   31 1   
    15    5    6 ar  
    16    5    7 ar  
    17    5    9 1   
    18    6   11 ar  
    19    6   12 1   
    20    7   10 ar  
    21    7   32 1   
    22    8   10 ar  
    23    8   11 ar  
    24    8   33 1   
    25    9   34 1   
    26   10   35 1   
    27   11   36 1   
    28   13   14 1   
    29   13   15 2   
    30   14   37 1   
    31   14   38 1   
    32   14   39 1   
    33   15   16 1   
    34   15   40 1   
    35   16   17 1   
    36   16   41 1   
    37   16   42 1   
    38   17   18 2   
    39   17   43 1   
    40   18   19 1   
    41   18   20 1   
    42   19   44 1   
    43   19   45 1   
    44   19   46 1   
    45   20   21 1   
    46   20   47 1   
    47   20   48 1   
    48   21   22 1   
    49   21   23 1   
@<TRIPOS>SUBSTRUCTURE
     1 29V         1 TEMP              0 ****  ****    0 ROOT
