@<TRIPOS>MOLECULE
molecule
   48    49     1     0     0
SMALL
bcc


@<TRIPOS>ATOM
      1 C4'          0.0000     0.0000     0.0000 c3         1 29V      -0.088100
      2 C1'          2.4900     0.0000     0.0000 c3         1 29V      -0.072400
      3 C2'          3.7420     0.0000     0.8880 c3         1 29V      -0.037200
      4 C8           4.7750     1.9920     1.9720 ce         1 29V      -0.157000
      5 C5           1.2160     0.9490     1.9330 ca         1 29V      -0.067300
      6 C6           2.3780     1.5940     2.3550 ca         1 29V      -0.031800
      7 C4           0.0030     1.3010     2.4970 ca         1 29V      -0.133000
      8 C2           1.0980     2.9190     3.8950 ca         1 29V      -0.133000
      9 C18          1.2470    -0.1230     0.8770 c3         1 29V      -0.024400
     10 C3          -0.0550     2.2800     3.4720 ca         1 29V      -0.138000
     11 C1           2.3150     2.5800     3.3420 ca         1 29V      -0.121000
     12 C7           3.6820     1.2400     1.7560 cf         1 29V      -0.086400
     13 C9           6.0720     1.5750     1.4300 ce         1 29V      -0.023200
     14 C19          6.6670     0.2510     1.8360 c3         1 29V      -0.033900
     15 C10          6.7230     2.3660     0.5780 c2         1 29V      -0.447200
     16 C11          6.0730     3.6290     0.0770 c3         1 29V      -0.101000
     17 C12          6.8980     4.8190     0.4960 c2         1 29V      -0.560200
     18 C13          7.4440     5.5910    -0.4110 c2         1 29V       0.180600
     19 C20          7.2460     5.2900    -1.8750 c3         1 29V      -0.138900
     20 C14          8.2710     6.7780     0.0080 c3         1 29V      -0.171200
     21 C15          9.7270     6.3910     0.0380 c          1 29V       0.907600
     22 O1          10.0600     5.2670    -0.2520 o          1 29V      -0.827300
     23 O2          10.6550     7.2970     0.3870 o          1 29V      -0.827300
     24 H1          -0.8590    -0.3810     0.5380 hc         1 29V       0.033367
     25 H2          -0.1640     1.0410    -0.2510 hc         1 29V       0.033367
     26 H3           0.1400    -0.5720    -0.9090 hc         1 29V       0.033367
     27 H4           2.4450     0.9260    -0.5600 hc         1 29V       0.045200
     28 H5           2.5330    -0.8390    -0.6830 hc         1 29V       0.045200
     29 H6           3.7490    -0.8850     1.5130 hc         1 29V       0.058200
     30 H7           4.6310     0.0280     0.2690 hc         1 29V       0.058200
     31 H8           4.7090     2.8750     2.5970 ha         1 29V       0.139000
     32 H9          -0.9060     0.8080     2.1740 ha         1 29V       0.125000
     33 H10          1.0440     3.6840     4.6600 ha         1 29V       0.126000
     34 H11          1.2520    -1.0930     1.3600 hc         1 29V       0.054700
     35 H12         -1.0090     2.5480     3.9090 ha         1 29V       0.120000
     36 H13          3.2190     3.0780     3.6710 ha         1 29V       0.140000
     37 H14          6.0370    -0.2140     2.5840 hc         1 29V       0.041700
     38 H15          7.6570     0.4110     2.2450 hc         1 29V       0.041700
     39 H16          6.7350    -0.3950     0.9690 hc         1 29V       0.041700
     40 H17          6.7370     3.2840     1.1530 ha         1 29V       0.413000
     41 H18          6.0090     3.5970    -1.0040 hc         1 29V       0.026200
     42 H19          5.0780     3.7140     0.4950 hc         1 29V       0.026200
     43 H20          5.8760     4.8780     0.1420 ha         1 29V       0.266000
     44 H21          7.6190     4.2970    -2.0930 hc         1 29V       0.052033
     45 H22          6.1900     5.3400    -2.1140 hc         1 29V       0.052033
     46 H23          7.7860     6.0170    -2.4690 hc         1 29V       0.052033
     47 H24          8.1270     7.5870    -0.6980 hc         1 29V       0.053200
     48 H25          7.9630     7.1020     0.9950 hc         1 29V       0.053200
@<TRIPOS>BOND
     1    14    13 1   
     2    15    13 2   
     3    15    16 1   
     4    13     4 1   
     5    17    16 1   
     6    17    18 2   
     7    20    18 1   
     8    20    21 1   
     9    18    19 1   
    10     4    12 2   
    11    22    21 1   
    12    21    23 1   
    13    12     3 1   
    14    12     6 1   
    15    11     6 ar  
    16    11     8 ar  
    17     3     2 1   
    18     6     5 ar  
    19     8    10 ar  
    20     2     9 1   
    21     5     9 1   
    22     5     7 ar  
    23    10     7 ar  
    24     9     1 1   
    25     1    24 1   
    26     1    25 1   
    27     1    26 1   
    28     2    27 1   
    29     2    28 1   
    30     3    29 1   
    31     3    30 1   
    32     4    31 1   
    33     7    32 1   
    34     8    33 1   
    35     9    34 1   
    36    10    35 1   
    37    11    36 1   
    38    14    37 1   
    39    14    38 1   
    40    14    39 1   
    41    15    40 1   
    42    16    41 1   
    43    16    42 1   
    44    17    43 1   
    45    19    44 1   
    46    19    45 1   
    47    19    46 1   
    48    20    47 1   
    49    20    48 1   
@<TRIPOS>SUBSTRUCTURE
     1 29V         1 TEMP              0 ****  ****    0 ROOT
