@<TRIPOS>MOLECULE
29W
   45    47     1     0     0
SMALL
bcc


@<TRIPOS>ATOM
      1 OXT          0.0000     0.0000     0.0000 o          1 29W      -0.875800
      2 C            1.3420     0.0000     0.0000 c          1 29W       0.976600
      3 O            1.9460     0.0000     1.0480 o          1 29W      -0.875800
      4 CA           2.0970    -0.0010    -1.3050 c3         1 29W      -0.212700
      5 N            3.5360    -0.0010    -1.0360 na         1 29W       0.580600
      6 CAZ          4.3430     1.1140    -0.9810 ca         1 29W      -0.248200
      7 CAM          4.0940     2.4740    -1.1440 ca         1 29W      -0.024000
      8 CAL          5.1240     3.3800    -1.0300 ca         1 29W      -0.207000
      9 CAV          6.4200     2.9490    -0.7530 ca         1 29W       0.101100
     10 OAR          7.4260     3.8580    -0.6440 os         1 29W      -0.319900
     11 CAA          7.0810     5.2330    -0.8260 c3         1 29W       0.244700
     12 CAN          6.6890     1.6070    -0.5870 ca         1 29W      -0.107000
     13 CAY          5.6500     0.6730    -0.7000 ca         1 29W      -0.073800
     14 CAO          5.5970    -0.7370    -0.5890 cc         1 29W      -0.185200
     15 CAX          4.3090    -1.1190    -0.7900 cd         1 29W      -0.300300
     16 CAT          3.8160    -2.5050    -0.7570 c          1 29W       0.698300
     17 OAD          2.6580    -2.7460    -1.0410 o          1 29W      -0.591100
     18 NAQ          4.6470    -3.5070    -0.4110 ns         1 29W      -0.292300
     19 SBB          4.1300    -5.0780    -0.4940 sy         1 29W       1.038900
     20 OAE          5.2320    -5.8860    -0.1030 o          1 29W      -0.576300
     21 OAF          2.8670    -5.1190     0.1570 o          1 29W      -0.576300
     22 CAW          3.8260    -5.4390    -2.1910 ca         1 29W      -0.169500
     23 CAJ          4.8400    -5.9460    -2.9820 ca         1 29W       0.023500
     24 CAH          4.6020    -6.2290    -4.3140 ca         1 29W      -0.145500
     25 CAU          3.3500    -6.0040    -4.8560 ca         1 29W      -0.045300
     26 CAB          3.0900    -6.3110    -6.3080 c3         1 29W       0.058200
     27 CAI          2.3360    -5.4970    -4.0650 ca         1 29W      -0.145500
     28 CAK          2.5730    -5.2180    -2.7320 ca         1 29W       0.023500
     29 H2           1.8350     0.8830    -1.8740 h1         1 29W       0.047200
     30 H3           1.8350    -0.8860    -1.8730 h1         1 29W       0.047200
     31 H4           3.0900     2.8190    -1.3600 ha         1 29W       0.107000
     32 H5           4.9260     4.4370    -1.1560 ha         1 29W       0.108000
     33 H6           6.6720     5.3740    -1.8200 h1         1 29W      -0.010300
     34 H7           7.9660     5.8470    -0.7090 h1         1 29W      -0.010300
     35 H8           6.3420     5.5200    -0.0880 h1         1 29W      -0.010300
     36 H9           7.6980     1.2760    -0.3710 ha         1 29W       0.102000
     37 H10          6.4320    -1.3930    -0.3750 ha         1 29W       0.113000
     38 H11          5.5920    -3.3060    -0.1500 hn         1 29W       0.233500
     39 H12          5.8220    -6.1190    -2.5590 ha         1 29W       0.131500
     40 H13          5.4060    -6.5960    -4.9420 ha         1 29W       0.108500
     41 H14          2.5630    -5.4810    -6.7630 hc         1 29W       0.007033
     42 H15          4.0330    -6.4640    -6.8190 hc         1 29W       0.007033
     43 H16          2.4880    -7.2080    -6.3860 hc         1 29W       0.007033
     44 H17          1.3630    -5.2940    -4.4960 ha         1 29W       0.108500
     45 H18          1.7200    -5.1300    -2.0700 ha         1 29W       0.131500
@<TRIPOS>BOND
     1     1     2 1   
     2     2     3 1   
     3     2     4 1   
     4     4     5 1   
     5     4    29 1   
     6     4    30 1   
     7     5     6 1   
     8     5    15 1   
     9     6     7 ar  
    10     6    13 ar  
    11     7     8 ar  
    12     7    31 1   
    13     8     9 ar  
    14     8    32 1   
    15     9    10 1   
    16     9    12 ar  
    17    10    11 1   
    18    11    33 1   
    19    11    34 1   
    20    11    35 1   
    21    12    13 ar  
    22    12    36 1   
    23    13    14 1   
    24    14    15 2   
    25    14    37 1   
    26    15    16 1   
    27    16    17 2   
    28    16    18 1   
    29    18    19 1   
    30    18    38 1   
    31    19    20 2   
    32    19    21 2   
    33    19    22 1   
    34    22    23 ar  
    35    22    28 ar  
    36    23    24 ar  
    37    23    39 1   
    38    24    25 ar  
    39    24    40 1   
    40    25    26 1   
    41    25    27 ar  
    42    26    41 1   
    43    26    42 1   
    44    26    43 1   
    45    27    28 ar  
    46    27    44 1   
    47    28    45 1   
@<TRIPOS>SUBSTRUCTURE
     1 29W         1 TEMP              0 ****  ****    0 ROOT
