@<TRIPOS>MOLECULE
29X
   44    47     1     0     0
SMALL
bcc


@<TRIPOS>ATOM
      1 F21          0.0000     0.0000     0.0000 f          1 29X      -0.126900
      2 C4           1.3510     0.0000     0.0000 ca         1 29X       0.104900
      3 C5           2.0440     0.0000     1.1990 ca         1 29X      -0.129000
      4 C6           3.4260     0.0010     1.1980 ca         1 29X      -0.074000
      5 C3           2.0440    -0.0060    -1.1990 ca         1 29X      -0.129000
      6 C2           3.4260    -0.0050    -1.1970 ca         1 29X      -0.074000
      7 C1           4.1170     0.0010     0.0010 ca         1 29X      -0.107300
      8 C7           5.6240     0.0020     0.0000 c3         1 29X       0.014600
      9 C8           6.1360    -1.2440     0.7280 c3         1 29X      -0.022400
     10 C9           7.6660    -1.2070     0.7780 c3         1 29X       0.145800
     11 N10          8.1040     0.0050     1.4790 n7         1 29X      -0.577200
     12 C11          7.6640     1.2160     0.7730 c3         1 29X       0.146800
     13 C12          6.1350     1.2510     0.7230 c3         1 29X      -0.054700
     14 C13          5.6780     2.5010    -0.0310 c3         1 29X       0.195400
     15 O14          6.0540     3.6660     0.7050 os         1 29X      -0.299900
     16 C15          5.7210     4.8680     0.1680 ca         1 29X       0.170100
     17 C16          6.0600     6.0480     0.8390 ca         1 29X      -0.077000
     18 C20          5.0510     4.9200    -1.0410 ca         1 29X      -0.217000
     19 C19          4.7040     6.1460    -1.6000 ca         1 29X       0.035000
     20 C18          5.0290     7.3150    -0.9440 ca         1 29X      -0.255600
     21 C22          4.8310     8.7600    -1.2210 c          1 29X       0.728100
     22 O25          4.2780     9.2310    -2.1950 o          1 29X      -0.499100
     23 C17          5.7180     7.2690     0.2890 ca         1 29X      -0.190900
     24 C24          5.8970     8.6750     0.6960 cc         1 29X       0.559800
     25 N23          5.3710     9.4570    -0.2040 nd         1 29X      -0.560100
     26 H1           1.5030    -0.0000     2.1370 ha         1 29X       0.120500
     27 H2           3.9680     0.0040     2.1360 ha         1 29X       0.114000
     28 H3           1.5030    -0.0110    -2.1370 ha         1 29X       0.120500
     29 H4           3.9690    -0.0070    -2.1350 ha         1 29X       0.114000
     30 H5           5.9910    -0.0000    -1.0190 hc         1 29X       0.032700
     31 H6           5.7430    -1.2600     1.7370 hc         1 29X       0.027200
     32 H7           5.8150    -2.1310     0.1950 hc         1 29X       0.027200
     33 H8           8.0290    -2.0800     1.3060 h1         1 29X       0.007200
     34 H9           8.0580    -1.2000    -0.2320 h1         1 29X       0.007200
     35 H10          9.1020     0.0060     1.5530 hn         1 29X       0.254800
     36 H12          8.0570     1.2070    -0.2360 h1         1 29X       0.013700
     37 H13          8.0260     2.0910     1.2990 h1         1 29X       0.013700
     38 H14          5.7430     1.2680     1.7330 hc         1 29X       0.056700
     39 H15          6.1450     2.5240    -1.0080 h1         1 29X       0.011700
     40 H16          4.6010     2.4790    -0.1470 h1         1 29X       0.011700
     41 H17          6.4820     6.0030     1.8360 ha         1 29X       0.120000
     42 H18          4.7950     4.0020    -1.5560 ha         1 29X       0.128000
     43 H19          4.1790     6.1820    -2.5470 ha         1 29X       0.113000
     44 H20          5.8490     8.9460     1.7440 h4         1 29X       0.002800
@<TRIPOS>BOND
     1     1     2 1   
     2     2     3 ar  
     3     2     5 ar  
     4     3     4 ar  
     5     3    26 1   
     6     4     7 ar  
     7     4    27 1   
     8     5     6 ar  
     9     5    28 1   
    10     6     7 ar  
    11     6    29 1   
    12     7     8 1   
    13     8     9 1   
    14     8    13 1   
    15     8    30 1   
    16     9    10 1   
    17     9    31 1   
    18     9    32 1   
    19    10    11 1   
    20    10    33 1   
    21    10    34 1   
    22    11    12 1   
    23    11    35 1   
    24    12    13 1   
    25    12    36 1   
    26    12    37 1   
    27    13    14 1   
    28    13    38 1   
    29    14    15 1   
    30    14    39 1   
    31    14    40 1   
    32    15    16 1   
    33    16    17 ar  
    34    16    18 ar  
    35    17    23 ar  
    36    17    41 1   
    37    18    19 ar  
    38    18    42 1   
    39    19    20 ar  
    40    19    43 1   
    41    20    21 1   
    42    20    23 ar  
    43    21    22 2   
    44    21    25 1   
    45    23    24 1   
    46    24    25 2   
    47    24    44 1   
@<TRIPOS>SUBSTRUCTURE
     1 29X         1 TEMP              0 ****  ****    0 ROOT
