@<TRIPOS>MOLECULE
29Y
   53    57     1     0     0
SMALL
bcc


@<TRIPOS>ATOM
      1 C1           0.0000     0.0000     0.0000 c3         1 29Y       0.180100
      2 N2           1.4690     0.0000     0.0000 n3         1 29Y      -0.541600
      3 C3           1.9940     0.0000     1.3720 c3         1 29Y       0.180100
      4 C4           1.9960    -1.1370    -0.7650 c3         1 29Y       0.211100
      5 C5           1.6380    -0.9730    -2.2200 ca         1 29Y      -0.092300
      6 C6           0.4500    -1.4890    -2.7020 ca         1 29Y      -0.086500
      7 C7           0.1220    -1.3390    -4.0360 ca         1 29Y      -0.101500
      8 C8           0.9820    -0.6720    -4.8880 ca         1 29Y      -0.059300
      9 C9           2.1690    -0.1540    -4.4060 ca         1 29Y      -0.101500
     10 C10          2.4950    -0.3010    -3.0710 ca         1 29Y      -0.086500
     11 C11          0.6250    -0.5080    -6.3430 cx         1 29Y      -0.011400
     12 C13          1.5110     0.4070    -7.1900 cx         1 29Y      -0.060400
     13 C14          1.5790    -1.1100    -7.3780 cx         1 29Y      -0.213700
     14 C16          0.9740    -1.6850    -8.6310 c          1 29Y       0.580100
     15 O17         -0.2280    -1.6590    -8.7920 o          1 29Y      -0.570100
     16 N18          1.7690    -2.2260    -9.5760 ns         1 29Y       0.004600
     17 C19          1.2120    -2.7550   -10.7300 cc         1 29Y       0.298800
     18 N20         -0.0480    -2.7760   -10.9950 nd         1 29Y      -0.435100
     19 C21         -0.4380    -3.3250   -12.1620 ca         1 29Y       0.081400
     20 C22         -1.7460    -3.4650   -12.6770 ca         1 29Y      -0.038000
     21 C23         -1.9570    -4.0500   -13.8860 ca         1 29Y      -0.106000
     22 C24         -0.8840    -4.5250   -14.6440 ca         1 29Y       0.034000
     23 C25          0.4100    -4.3980   -14.1600 ca         1 29Y      -0.058000
     24 C26          0.6340    -3.8010   -12.9240 ca         1 29Y      -0.008100
     25 S27          2.1260    -3.4850   -12.0420 ss         1 29Y      -0.243100
     26 C28         -1.1280    -5.1620   -15.9640 cc         1 29Y      -0.270300
     27 C29         -2.3420    -5.3510   -16.5560 cd         1 29Y      -0.252300
     28 N30         -2.1290    -5.9600   -17.7390 na         1 29Y       0.459400
     29 N32         -0.7490    -6.1570   -17.8880 nd         1 29Y      -0.662800
     30 C33         -0.1460    -5.6770   -16.8320 cc         1 29Y       0.411200
     31 H1          -0.3610     0.5620     0.8530 h1         1 29Y       0.002033
     32 H2          -0.3610     0.4570    -0.9130 h1         1 29Y       0.002033
     33 H3          -0.3610    -1.0200     0.0600 h1         1 29Y       0.002033
     34 H5           1.6580    -0.8910     1.8880 h1         1 29Y       0.002033
     35 H6           1.6360     0.8780     1.8960 h1         1 29Y       0.002033
     36 H7           3.0770     0.0140     1.3440 h1         1 29Y       0.002033
     37 H8           1.5640    -2.0570    -0.3890 h1         1 29Y       0.011700
     38 H9           3.0730    -1.1740    -0.6610 h1         1 29Y       0.011700
     39 H10         -0.2250    -2.0120    -2.0340 ha         1 29Y       0.107500
     40 H11         -0.8090    -1.7440    -4.4140 ha         1 29Y       0.111000
     41 H13          2.8420     0.3700    -5.0740 ha         1 29Y       0.111000
     42 H14          3.4260     0.1050    -2.6930 ha         1 29Y       0.107500
     43 H12         -0.4200    -0.5200    -6.6300 hc         1 29Y       0.087700
     44 H16          2.3520     0.8520    -6.6730 hc         1 29Y       0.055700
     45 H17          1.0030     0.9520    -7.9760 hc         1 29Y       0.055700
     46 H15          2.4620    -1.5780    -6.9600 hc         1 29Y       0.069700
     47 H18          2.7600    -2.2490    -9.4430 hn         1 29Y       0.174500
     48 H19         -2.5890    -3.1020   -12.1020 ha         1 29Y       0.117000
     49 H20         -2.9670    -4.1490   -14.2650 ha         1 29Y       0.106000
     50 H21          1.2460    -4.7650   -14.7440 ha         1 29Y       0.116000
     51 H22         -3.3040    -5.0620   -16.1490 h4         1 29Y       0.149000
     52 H31         -2.8340    -6.2280   -18.3970 hn         1 29Y       0.147700
     53 H23          0.9220    -5.6810   -16.6540 h4         1 29Y       0.008100
@<TRIPOS>BOND
     1     1     2 1   
     2     1    31 1   
     3     1    32 1   
     4     1    33 1   
     5     2     3 1   
     6     2     4 1   
     7     3    34 1   
     8     3    35 1   
     9     3    36 1   
    10     4     5 1   
    11     4    37 1   
    12     4    38 1   
    13     5     6 ar  
    14     5    10 ar  
    15     6     7 ar  
    16     6    39 1   
    17     7     8 ar  
    18     7    40 1   
    19     8     9 ar  
    20     8    11 1   
    21     9    10 ar  
    22     9    41 1   
    23    10    42 1   
    24    11    12 1   
    25    11    13 1   
    26    11    43 1   
    27    12    13 1   
    28    12    44 1   
    29    12    45 1   
    30    13    14 1   
    31    13    46 1   
    32    14    15 2   
    33    14    16 1   
    34    16    17 1   
    35    16    47 1   
    36    17    18 2   
    37    17    25 1   
    38    18    19 1   
    39    19    20 ar  
    40    19    24 ar  
    41    20    21 ar  
    42    20    48 1   
    43    21    22 ar  
    44    21    49 1   
    45    22    23 ar  
    46    22    26 1   
    47    23    24 ar  
    48    23    50 1   
    49    24    25 1   
    50    26    27 2   
    51    26    30 1   
    52    27    28 1   
    53    27    51 1   
    54    28    29 1   
    55    28    52 1   
    56    29    30 2   
    57    30    53 1   
@<TRIPOS>SUBSTRUCTURE
     1 29Y         1 TEMP              0 ****  ****    0 ROOT
