@<TRIPOS>MOLECULE
molecule
   53    57     1     0     0
SMALL
bcc


@<TRIPOS>ATOM
      1 C1           0.0000     0.0000     0.0000 c3         1 29Y       0.150100
      2 N2           1.4690     0.0000     0.0000 n3         1 29Y      -0.726600
      3 C3           1.9940     0.0000     1.3720 c3         1 29Y       0.150100
      4 C4           1.9960    -1.1370    -0.7650 c3         1 29Y       0.207100
      5 C5           1.6380    -0.9730    -2.2200 ca         1 29Y      -0.079300
      6 C6           0.4500    -1.4890    -2.7020 ca         1 29Y      -0.113500
      7 C7           0.1220    -1.3390    -4.0360 ca         1 29Y      -0.123000
      8 C8           0.9820    -0.6720    -4.8880 ca         1 29Y      -0.057300
      9 C9           2.1690    -0.1540    -4.4060 ca         1 29Y      -0.123000
     10 C10          2.4950    -0.3010    -3.0710 ca         1 29Y      -0.113500
     11 C11          0.6250    -0.5080    -6.3430 cx         1 29Y      -0.043400
     12 C13          1.5110     0.4070    -7.1900 cx         1 29Y      -0.110400
     13 C14          1.5790    -1.1100    -7.3780 cx         1 29Y      -0.230700
     14 C16          0.9740    -1.6850    -8.6310 c          1 29Y       0.682100
     15 O17         -0.2280    -1.6590    -8.7920 o          1 29Y      -0.528100
     16 N18          1.7690    -2.2260    -9.5760 ns         1 29Y      -0.455400
     17 C19          1.2120    -2.7550   -10.7300 cc         1 29Y       0.487800
     18 N20         -0.0480    -2.7760   -10.9950 nd         1 29Y      -0.579100
     19 C21         -0.4380    -3.3250   -12.1620 ca         1 29Y       0.139400
     20 C22         -1.7460    -3.4650   -12.6770 ca         1 29Y      -0.070000
     21 C23         -1.9570    -4.0500   -13.8860 ca         1 29Y      -0.127000
     22 C24         -0.8840    -4.5250   -14.6440 ca         1 29Y       0.017000
     23 C25          0.4100    -4.3980   -14.1600 ca         1 29Y      -0.087000
     24 C26          0.6340    -3.8010   -12.9240 ca         1 29Y      -0.043100
     25 S27          2.1260    -3.4850   -12.0420 ss         1 29Y      -0.169100
     26 C28         -1.1280    -5.1620   -15.9640 cd         1 29Y      -0.263300
     27 C29         -2.3420    -5.3510   -16.5560 cc         1 29Y      -0.097300
     28 N30         -2.1290    -5.9600   -17.7390 na         1 29Y      -0.040600
     29 N32         -0.7490    -6.1570   -17.8880 nc         1 29Y      -0.508800
     30 C33         -0.1460    -5.6770   -16.8320 cd         1 29Y       0.350200
     31 H1          -0.3610     0.5620     0.8530 h1         1 29Y       0.032867
     32 H2          -0.3610     0.4570    -0.9130 h1         1 29Y       0.032867
     33 H3          -0.3610    -1.0200     0.0600 h1         1 29Y       0.032867
     34 H5           1.6580    -0.8910     1.8880 h1         1 29Y       0.032867
     35 H6           1.6360     0.8780     1.8960 h1         1 29Y       0.032867
     36 H7           3.0770     0.0140     1.3440 h1         1 29Y       0.032867
     37 H8           1.5640    -2.0570    -0.3890 h1         1 29Y       0.039700
     38 H9           3.0730    -1.1740    -0.6610 h1         1 29Y       0.039700
     39 H10         -0.2250    -2.0120    -2.0340 ha         1 29Y       0.133000
     40 H11         -0.8090    -1.7440    -4.4140 ha         1 29Y       0.133000
     41 H13          2.8420     0.3700    -5.0740 ha         1 29Y       0.133000
     42 H14          3.4260     0.1050    -2.6930 ha         1 29Y       0.133000
     43 H12         -0.4200    -0.5200    -6.6300 hc         1 29Y       0.115700
     44 H16          2.3520     0.8520    -6.6730 hc         1 29Y       0.086200
     45 H17          1.0030     0.9520    -7.9760 hc         1 29Y       0.086200
     46 H15          2.4620    -1.5780    -6.9600 hc         1 29Y       0.094700
     47 H18          2.7600    -2.2490    -9.4430 hn         1 29Y       0.338500
     48 H19         -2.5890    -3.1020   -12.1020 ha         1 29Y       0.150000
     49 H20         -2.9670    -4.1490   -14.2650 ha         1 29Y       0.131000
     50 H21          1.2460    -4.7650   -14.7440 ha         1 29Y       0.136000
     51 H22         -3.3040    -5.0620   -16.1490 h4         1 29Y       0.174000
     52 H31         -2.8340    -6.2280   -18.3970 hn         1 29Y       0.331700
     53 H23          0.9220    -5.6810   -16.6540 h4         1 29Y       0.052100
@<TRIPOS>BOND
     1     7     6 ar  
     2     7     8 ar  
     3    15    14 2   
     4    11    12 1   
     5    11     8 1   
     6    11    13 1   
     7     6     5 ar  
     8    12    13 1   
     9     8     9 ar  
    10    25    24 1   
    11    25    17 1   
    12    29    30 2   
    13    29    28 1   
    14    30    26 1   
    15    14    13 1   
    16    14    16 1   
    17     1     2 1   
    18     5     4 1   
    19     5    10 ar  
    20    23    24 ar  
    21    23    22 ar  
    22     9    10 ar  
    23     4     2 1   
    24    24    19 ar  
    25    28    27 1   
    26    26    22 1   
    27    26    27 2   
    28    17    16 1   
    29    17    18 2   
    30     2     3 1   
    31    22    21 ar  
    32    19    18 1   
    33    19    20 ar  
    34    21    20 ar  
    35     1    31 1   
    36     1    32 1   
    37     1    33 1   
    38     3    34 1   
    39     3    35 1   
    40     3    36 1   
    41     4    37 1   
    42     4    38 1   
    43     6    39 1   
    44     7    40 1   
    45     9    41 1   
    46    10    42 1   
    47    11    43 1   
    48    12    44 1   
    49    12    45 1   
    50    13    46 1   
    51    16    47 1   
    52    20    48 1   
    53    21    49 1   
    54    23    50 1   
    55    27    51 1   
    56    28    52 1   
    57    30    53 1   
@<TRIPOS>SUBSTRUCTURE
     1 29Y         1 TEMP              0 ****  ****    0 ROOT
