@<TRIPOS>MOLECULE
29Z
   55    59     1     0     0
SMALL
bcc


@<TRIPOS>ATOM
      1 C1           0.0000     0.0000     0.0000 c3         1 29Z       0.180100
      2 N2           1.4700     0.0000     0.0000 n3         1 29Z      -0.541600
      3 C3           1.9960     0.0000     1.3710 c3         1 29Z       0.180100
      4 C4           1.9960    -1.1370    -0.7660 c3         1 29Z       0.210100
      5 C5           1.6380    -0.9730    -2.2200 ca         1 29Z      -0.091300
      6 C6           2.4940    -0.3010    -3.0720 ca         1 29Z      -0.086500
      7 C7           2.1650    -0.1500    -4.4060 ca         1 29Z      -0.101000
      8 C8           0.9790    -0.6710    -4.8880 ca         1 29Z      -0.060300
      9 C9           0.1230    -1.3430    -4.0370 ca         1 29Z      -0.101000
     10 C10          0.4540    -1.5000    -2.7040 ca         1 29Z      -0.086500
     11 C11          0.6190    -0.5040    -6.3420 cx         1 29Z      -0.010400
     12 C12         -0.5980    -1.2730    -6.8610 cx         1 29Z      -0.062400
     13 C13         -0.6750     0.2430    -6.6690 cx         1 29Z      -0.211700
     14 C14         -0.6880     1.1010    -7.9080 c          1 29Z       0.580100
     15 O15          0.3030     1.1790    -8.6030 o          1 29Z      -0.568100
     16 N16         -1.8010     1.7820    -8.2440 ns         1 29Z       0.005600
     17 C17         -1.8130     2.5710    -9.3820 cc         1 29Z       0.306800
     18 N18         -0.8180     2.7160   -10.1870 nd         1 29Z      -0.441100
     19 C19         -0.9840     3.5160   -11.2590 ca         1 29Z       0.097400
     20 C20         -0.0560     3.8320   -12.2750 ca         1 29Z      -0.043000
     21 C21         -0.3980     4.6660   -13.2930 ca         1 29Z      -0.096000
     22 C22         -1.6760     5.2280   -13.3540 cp         1 29Z      -0.026000
     23 C23         -2.6060     4.9320   -12.3660 ca         1 29Z      -0.042000
     24 C24         -2.2640     4.0790   -11.3230 ca         1 29Z      -0.017100
     25 S25         -3.1930     3.5110    -9.9370 ss         1 29Z      -0.239100
     26 C26         -2.0370     6.1370   -14.4690 cp         1 29Z      -0.149300
     27 C27         -1.1090     6.4370   -15.4700 ca         1 29Z      -0.067000
     28 C28         -1.4940     7.2910   -16.4880 ca         1 29Z      -0.216300
     29 C29         -2.7740     7.8170   -16.4830 ca         1 29Z       0.403200
     30 N30         -3.6280     7.5150   -15.5240 nb         1 29Z      -0.578000
     31 C31         -3.3080     6.7020   -14.5380 ca         1 29Z       0.404200
     32 H1          -0.3610     0.5750     0.8440 h1         1 29Z       0.001533
     33 H2          -0.3610    -1.0190     0.0750 h1         1 29Z       0.001533
     34 H3          -0.3610     0.4440    -0.9200 h1         1 29Z       0.001533
     35 H5           1.6450     0.8820     1.8930 h1         1 29Z       0.001533
     36 H6           3.0790     0.0060     1.3420 h1         1 29Z       0.001533
     37 H7           1.6530    -0.8870     1.8890 h1         1 29Z       0.001533
     38 H8           1.5650    -2.0570    -0.3890 h1         1 29Z       0.012200
     39 H9           3.0740    -1.1750    -0.6620 h1         1 29Z       0.012200
     40 H10          3.4240     0.1070    -2.6940 ha         1 29Z       0.107500
     41 H11          2.8360     0.3760    -5.0730 ha         1 29Z       0.110500
     42 H12         -0.8060    -1.7530    -4.4160 ha         1 29Z       0.110500
     43 H13         -0.2180    -2.0270    -2.0370 ha         1 29Z       0.107500
     44 H14          1.4150    -0.3730    -7.0660 hc         1 29Z       0.087700
     45 H15         -1.1260    -1.8650    -6.1240 hc         1 29Z       0.055700
     46 H16         -0.5340    -1.6120    -7.8880 hc         1 29Z       0.055700
     47 H17         -1.2450     0.5620    -5.8050 hc         1 29Z       0.070700
     48 H18         -2.6120     1.7340    -7.6590 hn         1 29Z       0.175500
     49 H19          0.9390     3.4050   -12.2430 ha         1 29Z       0.120000
     50 H20          0.3270     4.8970   -14.0630 ha         1 29Z       0.114000
     51 H21         -3.5980     5.3650   -12.4090 ha         1 29Z       0.120000
     52 H22         -0.1130     6.0110   -15.4490 ha         1 29Z       0.117000
     53 H23         -0.8010     7.5460   -17.2810 ha         1 29Z       0.113000
     54 H24         -3.0780     8.4880   -17.2770 h4         1 29Z      -0.019900
     55 H25         -4.0370     6.4790   -13.7680 h4         1 29Z      -0.012900
@<TRIPOS>BOND
     1     1     2 1   
     2     1    32 1   
     3     1    33 1   
     4     1    34 1   
     5     2     3 1   
     6     2     4 1   
     7     3    35 1   
     8     3    36 1   
     9     3    37 1   
    10     4     5 1   
    11     4    38 1   
    12     4    39 1   
    13     5     6 ar  
    14     5    10 ar  
    15     6     7 ar  
    16     6    40 1   
    17     7     8 ar  
    18     7    41 1   
    19     8     9 ar  
    20     8    11 1   
    21     9    10 ar  
    22     9    42 1   
    23    10    43 1   
    24    11    12 1   
    25    11    13 1   
    26    11    44 1   
    27    12    13 1   
    28    12    45 1   
    29    12    46 1   
    30    13    14 1   
    31    13    47 1   
    32    14    15 2   
    33    14    16 1   
    34    16    17 1   
    35    16    48 1   
    36    17    18 2   
    37    17    25 1   
    38    18    19 1   
    39    19    20 ar  
    40    19    24 ar  
    41    20    21 ar  
    42    20    49 1   
    43    21    22 ar  
    44    21    50 1   
    45    22    23 ar  
    46    22    26 1   
    47    23    24 ar  
    48    23    51 1   
    49    24    25 1   
    50    26    27 ar  
    51    26    31 ar  
    52    27    28 ar  
    53    27    52 1   
    54    28    29 ar  
    55    28    53 1   
    56    29    30 ar  
    57    29    54 1   
    58    30    31 ar  
    59    31    55 1   
@<TRIPOS>SUBSTRUCTURE
     1 29Z         1 TEMP              0 ****  ****    0 ROOT
