@<TRIPOS>MOLECULE
molecule
   55    59     1     0     0
SMALL
bcc


@<TRIPOS>ATOM
      1 C1           0.0000     0.0000     0.0000 c3         1 29Z       0.150600
      2 N2           1.4700     0.0000     0.0000 n3         1 29Z      -0.726600
      3 C3           1.9960     0.0000     1.3710 c3         1 29Z       0.150600
      4 C4           1.9960    -1.1370    -0.7660 c3         1 29Z       0.207100
      5 C5           1.6380    -0.9730    -2.2200 ca         1 29Z      -0.078300
      6 C6           2.4940    -0.3010    -3.0720 ca         1 29Z      -0.113500
      7 C7           2.1650    -0.1500    -4.4060 ca         1 29Z      -0.123000
      8 C8           0.9790    -0.6710    -4.8880 ca         1 29Z      -0.058300
      9 C9           0.1230    -1.3430    -4.0370 ca         1 29Z      -0.123000
     10 C10          0.4540    -1.5000    -2.7040 ca         1 29Z      -0.113500
     11 C11          0.6190    -0.5040    -6.3420 cx         1 29Z      -0.042400
     12 C12         -0.5980    -1.2730    -6.8610 cx         1 29Z      -0.111400
     13 C13         -0.6750     0.2430    -6.6690 cx         1 29Z      -0.229700
     14 C14         -0.6880     1.1010    -7.9080 c          1 29Z       0.682100
     15 O15          0.3030     1.1790    -8.6030 o          1 29Z      -0.526100
     16 N16         -1.8010     1.7820    -8.2440 ns         1 29Z      -0.454400
     17 C17         -1.8130     2.5710    -9.3820 cc         1 29Z       0.494800
     18 N18         -0.8180     2.7160   -10.1870 nd         1 29Z      -0.583100
     19 C19         -0.9840     3.5160   -11.2590 ca         1 29Z       0.152400
     20 C20         -0.0560     3.8320   -12.2750 ca         1 29Z      -0.075000
     21 C21         -0.3980     4.6660   -13.2930 ca         1 29Z      -0.115000
     22 C22         -1.6760     5.2280   -13.3540 cp         1 29Z      -0.033000
     23 C23         -2.6060     4.9320   -12.3660 ca         1 29Z      -0.074000
     24 C24         -2.2640     4.0790   -11.3230 ca         1 29Z      -0.052100
     25 S25         -3.1930     3.5110    -9.9370 ss         1 29Z      -0.164100
     26 C26         -2.0370     6.1370   -14.4690 cp         1 29Z      -0.156300
     27 C27         -1.1090     6.4370   -15.4700 ca         1 29Z      -0.086000
     28 C28         -1.4940     7.2910   -16.4880 ca         1 29Z      -0.250300
     29 C29         -2.7740     7.8170   -16.4830 ca         1 29Z       0.419200
     30 N30         -3.6280     7.5150   -15.5240 nb         1 29Z      -0.687000
     31 C31         -3.3080     6.7020   -14.5380 ca         1 29Z       0.426200
     32 H1          -0.3610     0.5750     0.8440 h1         1 29Z       0.032533
     33 H2          -0.3610    -1.0190     0.0750 h1         1 29Z       0.032533
     34 H3          -0.3610     0.4440    -0.9200 h1         1 29Z       0.032533
     35 H5           1.6450     0.8820     1.8930 h1         1 29Z       0.032533
     36 H6           3.0790     0.0060     1.3420 h1         1 29Z       0.032533
     37 H7           1.6530    -0.8870     1.8890 h1         1 29Z       0.032533
     38 H8           1.5650    -2.0570    -0.3890 h1         1 29Z       0.039700
     39 H9           3.0740    -1.1750    -0.6620 h1         1 29Z       0.039700
     40 H10          3.4240     0.1070    -2.6940 ha         1 29Z       0.133000
     41 H11          2.8360     0.3760    -5.0730 ha         1 29Z       0.133000
     42 H12         -0.8060    -1.7530    -4.4160 ha         1 29Z       0.133000
     43 H13         -0.2180    -2.0270    -2.0370 ha         1 29Z       0.133000
     44 H14          1.4150    -0.3730    -7.0660 hc         1 29Z       0.116700
     45 H15         -1.1260    -1.8650    -6.1240 hc         1 29Z       0.086200
     46 H16         -0.5340    -1.6120    -7.8880 hc         1 29Z       0.086200
     47 H17         -1.2450     0.5620    -5.8050 hc         1 29Z       0.095700
     48 H18         -2.6120     1.7340    -7.6590 hn         1 29Z       0.339500
     49 H19          0.9390     3.4050   -12.2430 ha         1 29Z       0.153000
     50 H20          0.3270     4.8970   -14.0630 ha         1 29Z       0.138000
     51 H21         -3.5980     5.3650   -12.4090 ha         1 29Z       0.139000
     52 H22         -0.1130     6.0110   -15.4490 ha         1 29Z       0.141000
     53 H23         -0.8010     7.5460   -17.2810 ha         1 29Z       0.139000
     54 H24         -3.0780     8.4880   -17.2770 h4         1 29Z       0.024100
     55 H25         -4.0370     6.4790   -13.7680 h4         1 29Z       0.026100
@<TRIPOS>BOND
     1    28    27 ar  
     2    28    29 ar  
     3    27    26 ar  
     4    29    30 ar  
     5    26    22 1   
     6    26    31 ar  
     7    21    22 ar  
     8    21    20 ar  
     9    22    23 ar  
    10    20    19 ar  
    11    30    31 ar  
    12    23    24 ar  
    13    19    24 ar  
    14    19    18 1   
    15    24    25 1   
    16    18    17 2   
    17    17    25 1   
    18    17    16 1   
    19    16    14 1   
    20    15    14 2   
    21    14    13 1   
    22    12    13 1   
    23    12    11 1   
    24    13    11 1   
    25    11     8 1   
    26     9     8 ar  
    27     9    10 ar  
    28     8     7 ar  
    29    10     5 ar  
    30     7     6 ar  
    31     5     6 ar  
    32     5     4 1   
    33     4     2 1   
    34     1     2 1   
    35     2     3 1   
    36     1    32 1   
    37     1    33 1   
    38     1    34 1   
    39     3    35 1   
    40     3    36 1   
    41     3    37 1   
    42     4    38 1   
    43     4    39 1   
    44     6    40 1   
    45     7    41 1   
    46     9    42 1   
    47    10    43 1   
    48    11    44 1   
    49    12    45 1   
    50    12    46 1   
    51    13    47 1   
    52    16    48 1   
    53    20    49 1   
    54    21    50 1   
    55    23    51 1   
    56    27    52 1   
    57    28    53 1   
    58    29    54 1   
    59    31    55 1   
@<TRIPOS>SUBSTRUCTURE
     1 29Z         1 TEMP              0 ****  ****    0 ROOT
