@<TRIPOS>MOLECULE
2A2
   38    39     1     0     0
SMALL
bcc


@<TRIPOS>ATOM
      1 C1           0.0000     0.0000     0.0000 c3         1 2A2       0.101700
      2 SD           1.8140     0.0000     0.0000 sh         1 2A2      -0.401900
      3 C15         -0.5110     0.0000     1.4430 c3         1 2A2       0.005600
      4 C16         -2.0400     0.0000     1.4420 c3         1 2A2      -0.102400
      5 C17         -2.5420    -0.0010     2.8630 c          1 2A2       0.591100
      6 O18         -1.7550    -0.0010     3.7850 o          1 2A2      -0.639100
      7 N19         -3.8670    -0.0000     3.1090 n          1 2A2      -0.165800
      8 C20         -4.3800    -0.0010     4.4880 c3         1 2A2       0.049000
      9 C21         -5.4030     1.1320     4.6270 c3         1 2A2       0.117800
     10 N22         -6.4280     0.9920     3.5840 nh         1 2A2      -0.357000
     11 C23         -5.8460     1.1320     2.2430 c3         1 2A2       0.117800
     12 C24         -4.8410     0.0060     2.0060 c3         1 2A2       0.049000
     13 C25         -7.4660     1.9060     3.7770 ca         1 2A2       0.030600
     14 C26         -8.5400     1.9370     2.8950 ca         1 2A2      -0.130000
     15 C27         -9.5640     2.8420     3.0870 ca         1 2A2      -0.064000
     16 C28         -9.5240     3.7180     4.1570 ca         1 2A2      -0.124000
     17 C29         -8.4570     3.6910     5.0370 ca         1 2A2      -0.003600
     18 C30         -7.4310     2.7820     4.8530 ca         1 2A2      -0.166000
     19 Cl99        -8.4100     4.7930     6.3780 cl         1 2A2      -0.026400
     20 H1          -0.3610     0.8840    -0.5110 h1         1 2A2       0.025700
     21 H1A         -0.3610    -0.8840    -0.5110 h1         1 2A2       0.025700
     22 HSD          2.2560     0.0000    -1.2520 hs         1 2A2       0.183800
     23 H15         -0.1500     0.8840     1.9540 hc         1 2A2       0.046200
     24 H15A        -0.1500    -0.8850     1.9530 hc         1 2A2       0.046200
     25 H16         -2.4010     0.8850     0.9320 hc         1 2A2       0.029700
     26 H16A        -2.4010    -0.8840     0.9310 hc         1 2A2       0.029700
     27 H20         -3.5620     0.1620     5.1790 h1         1 2A2       0.036950
     28 H20A        -4.8580    -0.9500     4.6970 h1         1 2A2       0.036950
     29 H21         -4.9020     2.0860     4.5150 h1         1 2A2       0.028200
     30 H21A        -5.8710     1.0760     5.6030 h1         1 2A2       0.028200
     31 H23         -5.3410     2.0870     2.1670 h1         1 2A2       0.028200
     32 H23A        -6.6330     1.0730     1.5010 h1         1 2A2       0.028200
     33 H24         -5.3610    -0.9440     1.9770 h1         1 2A2       0.036950
     34 H24A        -4.3250     0.1730     1.0680 h1         1 2A2       0.036950
     35 H26         -8.5720     1.2510     2.0560 ha         1 2A2       0.115000
     36 H27        -10.4010     2.8660     2.4000 ha         1 2A2       0.106000
     37 H28        -10.3280     4.4290     4.3040 ha         1 2A2       0.116000
     38 H30         -6.5960     2.7610     5.5430 ha         1 2A2       0.135000
@<TRIPOS>BOND
     1     1     2 1   
     2     1     3 1   
     3     1    20 1   
     4     1    21 1   
     5     2    22 1   
     6     3     4 1   
     7     3    23 1   
     8     3    24 1   
     9     4     5 1   
    10     4    25 1   
    11     4    26 1   
    12     5     6 2   
    13     5     7 1   
    14     7     8 1   
    15     7    12 1   
    16     8     9 1   
    17     8    27 1   
    18     8    28 1   
    19     9    10 1   
    20     9    29 1   
    21     9    30 1   
    22    10    11 1   
    23    10    13 1   
    24    11    12 1   
    25    11    31 1   
    26    11    32 1   
    27    12    33 1   
    28    12    34 1   
    29    13    14 ar  
    30    13    18 ar  
    31    14    15 ar  
    32    14    35 1   
    33    15    16 ar  
    34    15    36 1   
    35    16    17 ar  
    36    16    37 1   
    37    17    18 ar  
    38    17    19 1   
    39    18    38 1   
@<TRIPOS>SUBSTRUCTURE
     1 2A2         1 TEMP              0 ****  ****    0 ROOT
