@<TRIPOS>MOLECULE
molecule
   15    14     1     0     0
SMALL
bcc


@<TRIPOS>ATOM
      1 C1           0.0000     0.0000     0.0000 c3         1 2A3       0.117400
      2 N1           2.0200    -1.1990    -0.6930 nz         1 2A3      -0.808600
      3 O1          -0.4770    -1.1040     0.7720 oh         1 2A3      -0.624800
      4 C2           1.5300     0.0000     0.0000 c3         1 2A3       0.106500
      5 C3           2.0390     0.0000     1.4420 c3         1 2A3      -0.114100
      6 H1          -0.3610     0.9260     0.4320 h1         1 2A3       0.066200
      7 H1A         -0.3610    -0.0890    -1.0180 h1         1 2A3       0.066200
      8 HN1          1.7170    -2.0160    -0.2000 hn         1 2A3       0.458800
      9 HN1A         1.6560    -1.2180    -1.6250 hn         1 2A3       0.458800
     10 HO1         -1.4200    -1.1030     0.7730 ho         1 2A3       0.452000
     11 H2           1.8910     0.8850    -0.5100 hx         1 2A3       0.118700
     12 H3           1.7880    -0.9420     1.9140 hc         1 2A3       0.081367
     13 H3A          1.5760     0.8120     1.9890 hc         1 2A3       0.081367
     14 H3B          3.1150     0.1300     1.4460 hc         1 2A3       0.081367
     15 H13          3.0180    -1.1660    -0.7500 hn         1 2A3       0.458800
@<TRIPOS>BOND
     1     1     3 1   
     2     1     4 1   
     3     2     4 1   
     4     4     5 1   
     5     1     6 1   
     6     1     7 1   
     7     2     8 1   
     8     2     9 1   
     9     3    10 1   
    10     4    11 1   
    11     5    12 1   
    12     5    13 1   
    13     5    14 1   
    14    15     2 1   
@<TRIPOS>SUBSTRUCTURE
     1 2A3         1 TEMP              0 ****  ****    0 ROOT
