@<TRIPOS>MOLECULE
molecule
   45    47     1     0     0
SMALL
bcc


@<TRIPOS>ATOM
      1 O2A          0.0000     0.0000     0.0000 o          1 2A5      -0.856500
      2 PA           1.6100     0.0000     0.0000 p5         1 2A5       1.420800
      3 O1A          2.1030     0.0000     1.3960 o          1 2A5      -0.856500
      4 O3A          2.1460     1.3150    -0.7580 os         1 2A5      -0.710800
      5 PB           2.3300     2.8560    -0.3300 p5         1 2A5       1.306900
      6 O2B          3.2740     3.6020    -1.4000 o          1 2A5      -0.878833
      7 O1B          0.8900     3.5770    -0.2910 o          1 2A5      -0.878833
      8 O3B          2.9530     2.9250     1.0100 o          1 2A5      -0.878833
      9 O5'          2.1470    -1.3140    -0.7600 os         1 2A5      -0.583200
     10 C5'          1.9290    -2.6390    -0.2710 c3         1 2A5       0.233400
     11 C4'          2.5670    -3.6480    -1.2280 c3         1 2A5       0.101100
     12 O4'          3.9980    -3.5060    -1.2030 os         1 2A5      -0.369600
     13 C1'          4.5550    -4.8250    -1.3920 c3         1 2A5       0.255800
     14 C2'          3.6280    -5.7330    -0.5440 c3         1 2A5      -0.113700
     15 C01          3.6470    -7.1710    -1.0660 c3         1 2A5      -0.068400
     16 C02          2.8230    -8.0630    -0.1350 c3         1 2A5       0.141400
     17 O01          2.8410    -9.4060    -0.6220 oh         1 2A5      -0.617800
     18 C3'          2.2380    -5.0830    -0.7740 c3         1 2A5       0.102100
     19 O3'          1.5210    -5.7810    -1.7930 oh         1 2A5      -0.618800
     20 N9           5.9300    -4.8800    -0.8900 na         1 2A5      -0.248000
     21 C8           6.4780    -4.0620     0.0530 cc         1 2A5       0.450700
     22 N7           7.7200    -4.3920     0.2590 nd         1 2A5      -0.612100
     23 C5           8.0470    -5.4400    -0.5340 ca         1 2A5      -0.150200
     24 C4           6.9010    -5.7690    -1.2770 ca         1 2A5       0.440800
     25 C6           9.2110    -6.1990    -0.7380 ca         1 2A5       0.688200
     26 N6          10.3690    -5.9250    -0.0310 nv         1 2A5      -1.066500
     27 N1           9.1740    -7.1880    -1.6250 nb         1 2A5      -0.788000
     28 C2           8.0730    -7.4570    -2.3040 ca         1 2A5       0.636900
     29 N3           6.9590    -6.7770    -2.1410 nb         1 2A5      -0.776000
     30 H5'          2.3760    -2.7400     0.7110 h1         1 2A5       0.026700
     31 H5'A         0.8640    -2.8290    -0.2040 h1         1 2A5       0.026700
     32 H4'          2.2010    -3.4890    -2.2350 h1         1 2A5       0.071700
     33 H1'          4.5120    -5.1090    -2.4360 h2         1 2A5       0.083700
     34 H2'          3.9020    -5.6910     0.5030 hc         1 2A5       0.074700
     35 H01          3.2240    -7.2000    -2.0630 hc         1 2A5       0.070200
     36 H01A         4.6690    -7.5300    -1.0980 hc         1 2A5       0.070200
     37 H02          3.2460    -8.0340     0.8610 h1         1 2A5       0.018200
     38 H02A         1.8010    -7.7040    -0.1040 h1         1 2A5       0.018200
     39 HO01         2.4130    -9.9720    -0.0010 ho         1 2A5       0.383000
     40 H3'          1.6740    -5.0650     0.1500 h1         1 2A5       0.051700
     41 HO3'         0.6110    -5.5360    -1.7610 ho         1 2A5       0.406000
     42 H8           5.9570    -3.2560     0.5550 h5         1 2A5       0.115800
     43 HN6         10.5440    -6.3860     0.8410 hn         1 2A5       0.421300
     44 HN6A        11.0440    -5.2870    -0.4040 hn         1 2A5       0.421300
     45 H2           8.0870    -8.2720    -3.0170 h5         1 2A5       0.032100
@<TRIPOS>BOND
     1     2     1 1
     2     3     2 1
     3     2     4 1
     4     2     9 1
     5     5     4 1
     6     8     5 1
     7     6     5 1
     8     5     7 1
     9     9    10 1
    10    10    11 1
    11    10    30 1
    12    10    31 1
    13    12    11 1
    14    18    11 1
    15    11    32 1
    16    13    12 1
    17    20    13 1
    18    13    14 1
    19    13    33 1
    20    14    18 1
    21    14    15 1
    22    14    34 1
    23    15    16 1
    24    15    35 1
    25    15    36 1
    26    16    17 1
    27    16    37 1
    28    16    38 1
    29    17    39 1
    30    18    19 1
    31    18    40 1
    32    19    41 1
    33    21    20 1
    34    24    20 1
    35    22    21 2
    36    21    42 1
    37    22    23 1
    38    25    23 ar
    39    23    24 ar
    40    24    29 ar
    41    26    25 1
    42    25    27 ar
    43    26    43 1
    44    26    44 1
    45    27    28 ar
    46    28    29 ar
    47    28    45 1
@<TRIPOS>SUBSTRUCTURE
     1 2A5         1 TEMP              0 ****  ****    0 ROOT
