@<TRIPOS>MOLECULE
molecule
   45    48     1     0     0
SMALL
bcc


@<TRIPOS>ATOM
      1 C2           0.0000     0.0000     0.0000 ca         1 2A6       0.966900
      2 C8           0.5090    -0.0010     4.3880 cc         1 2A6       0.460700
      3 C10          3.7700     0.0020    -0.2430 c3         1 2A6       0.131400
      4 C11          5.2980     0.0020    -0.3260 c3         1 2A6      -0.077700
      5 C12          5.7290     0.0040    -1.7940 c3         1 2A6      -0.073900
      6 C13          7.2570     0.0040    -1.8770 c3         1 2A6      -0.078900
      7 C14          7.8050     1.2520    -1.1840 c3         1 2A6      -0.081400
      8 C15          7.3730     1.2520     0.2830 c3         1 2A6      -0.078900
      9 C16          5.8450     1.2510     0.3650 c3         1 2A6      -0.073900
     10 C19         -4.1700    -0.4160    -2.2570 ca         1 2A6      -0.112000
     11 C20         -4.8190     0.3480    -1.3050 ca         1 2A6      -0.149000
     12 C21         -4.0930     0.9970    -0.3230 ca         1 2A6      -0.112000
     13 C22         -2.7170     0.8840    -0.2900 ca         1 2A6      -0.142500
     14 N1           1.3270     0.0000     0.0000 nb         1 2A6      -0.862000
     15 C6           2.0120     0.0000     1.1370 ca         1 2A6       0.732600
     16 O6           3.3670     0.0010     1.1270 os         1 2A6      -0.419100
     17 C5           1.3110    -0.0060     2.3400 ca         1 2A6      -0.411800
     18 N7           1.6580    -0.0010     3.6770 na         1 2A6      -0.237300
     19 N9          -0.5170    -0.0020     3.5830 nd         1 2A6      -0.685700
     20 C4          -0.0940    -0.0010     2.3050 ca         1 2A6       0.672300
     21 N3          -0.7060    -0.0010     1.1160 nb         1 2A6      -0.775000
     22 N2          -0.6690    -0.0010    -1.2150 nu         1 2A6      -0.755300
     23 C17         -2.0620     0.1160    -1.2450 ca         1 2A6       0.158600
     24 C18         -2.7940    -0.5290    -2.2330 ca         1 2A6      -0.142500
     25 H8           0.4490    -0.0010     5.4700 h5         1 2A6       0.079800
     26 H101         3.3830    -0.8830    -0.7340 h1         1 2A6       0.059200
     27 H102         3.3820     0.8860    -0.7340 h1         1 2A6       0.059200
     28 H11          5.6910    -0.8810     0.1630 hc         1 2A6       0.060700
     29 H121         5.3430    -0.8820    -2.2830 hc         1 2A6       0.045450
     30 H122         5.3420     0.8900    -2.2820 hc         1 2A6       0.045450
     31 H131         7.5610     0.0070    -2.9160 hc         1 2A6       0.042200
     32 H132         7.6450    -0.8790    -1.3840 hc         1 2A6       0.042200
     33 H141         7.4140     2.1360    -1.6740 hc         1 2A6       0.041700
     34 H142         8.8860     1.2500    -1.2410 hc         1 2A6       0.041700
     35 H151         7.7590     2.1380     0.7710 hc         1 2A6       0.042200
     36 H152         7.7600     0.3660     0.7710 hc         1 2A6       0.042200
     37 H161         5.5410     1.2490     1.4050 hc         1 2A6       0.045450
     38 H162         5.4580     2.1350    -0.1280 hc         1 2A6       0.045450
     39 H19         -4.7420    -0.9210    -3.0270 ha         1 2A6       0.130000
     40 H20         -5.8990     0.4370    -1.3270 ha         1 2A6       0.127000
     41 H21         -4.6050     1.5950     0.4210 ha         1 2A6       0.130000
     42 H22         -2.1490     1.3930     0.4790 ha         1 2A6       0.144500
     43 H7           2.5870    -0.0010     4.0490 hn         1 2A6       0.311700
     44 H2          -0.1530    -0.0540    -2.0700 hn         1 2A6       0.463800
     45 H18         -2.2860    -1.1290    -2.9790 ha         1 2A6       0.144500
@<TRIPOS>BOND
     1     1    14 ar
     2     1    21 ar
     3     1    22 1
     4     2    18 1
     5     2    19 2
     6     2    25 1
     7     3     4 1
     8     3    16 1
     9     3    26 1
    10     3    27 1
    11     4     5 1
    12     4     9 1
    13     4    28 1
    14     5     6 1
    15     5    29 1
    16     5    30 1
    17     6     7 1
    18     6    31 1
    19     6    32 1
    20     7     8 1
    21     7    33 1
    22     7    34 1
    23     8     9 1
    24     8    35 1
    25     8    36 1
    26     9    37 1
    27     9    38 1
    28    10    11 ar
    29    10    24 ar
    30    10    39 1
    31    11    12 ar
    32    11    40 1
    33    12    13 ar
    34    12    41 1
    35    13    23 ar
    36    13    42 1
    37    14    15 ar
    38    15    16 1
    39    15    17 ar
    40    17    18 1
    41    17    20 ar
    42    18    43 1
    43    19    20 1
    44    20    21 ar
    45    22    23 1
    46    22    44 1
    47    23    24 ar
    48    24    45 1
@<TRIPOS>SUBSTRUCTURE
     1 2A6         1 TEMP              0 ****  ****    0 ROOT
