@<TRIPOS>MOLECULE
molecule
   18    18     1     0     0
SMALL
bcc


@<TRIPOS>ATOM
      1 C7           0.0000     0.0000     0.0000 c3         1 2A7       0.127700
      2 O3           1.4280     0.0000     0.0000 os         1 2A7      -0.324900
      3 C6           2.0460     0.0000     1.2110 ca         1 2A7       0.167100
      4 C5           3.4300    -0.0000     1.2840 ca         1 2A7      -0.225500
      5 C3           4.0590     0.0010     2.5190 ca         1 2A7       0.155100
      6 O1           5.4160    -0.0010     2.5910 oh         1 2A7      -0.518600
      7 C1           3.3040     0.0020     3.6830 ca         1 2A7      -0.220000
      8 C2           1.9190     0.0030     3.6100 ca         1 2A7       0.155100
      9 C4           1.2900     0.0070     2.3740 ca         1 2A7      -0.225500
     10 O8           1.1790     0.0040     4.7490 oh         1 2A7      -0.518600
     11 H71C        -0.3610    -0.8950     0.4920 h1         1 2A7       0.043367
     12 H72C        -0.3610     0.0210    -1.0210 h1         1 2A7       0.043367
     13 H73C        -0.3610     0.8740     0.5290 h1         1 2A7       0.043367
     14 H5           4.0200     0.0210     0.3750 ha         1 2A7       0.151500
     15 H4           0.2080     0.0070     2.3170 ha         1 2A7       0.151500
     16 H1           5.7290    -0.8900     2.6050 ho         1 2A7       0.422500
     17 HA           3.7960     0.0020     4.6480 ha         1 2A7       0.151000
     18 H8           1.0680    -0.8810     5.0540 ho         1 2A7       0.422500
@<TRIPOS>BOND
     1     1     2 1
     2     2     3 1
     3     3     4 ar
     4     3     9 ar
     5     4     5 ar
     6     5     6 1
     7     5     7 ar
     8     7     8 ar
     9     8     9 ar
    10     8    10 1
    11     1    11 1
    12     1    12 1
    13     1    13 1
    14     4    14 1
    15     9    15 1
    16     6    16 1
    17     7    17 1
    18    10    18 1
@<TRIPOS>SUBSTRUCTURE
     1 2A7         1 TEMP              0 ****  ****    0 ROOT
