@<TRIPOS>MOLECULE
2A7
   18    18     1     0     0
SMALL
bcc


@<TRIPOS>ATOM
      1 C7         -0.0570   -0.0060   -0.0930 c3        1 2A7      0.112700
      2 O3          1.3660    0.0170   -0.0550 os        1 2A7     -0.321900
      3 C6          1.9440    0.0100    1.1970 ca        1 2A7      0.188100
      4 C5          3.3500    0.0340    1.1890 ca        1 2A7     -0.245000
      5 C3          4.0190    0.0280    2.4180 ca        1 2A7      0.192600
      6 O1          5.3920    0.0530    2.3630 oh        1 2A7     -0.493600
      7 C1          3.3240   -0.0010    3.6370 ca        1 2A7     -0.335000
      8 C2          1.9250   -0.0250    3.6010 ca        1 2A7      0.192600
      9 C4          1.2150   -0.0200    2.3900 ca        1 2A7     -0.245000
     10 O8          1.1640   -0.0540    4.7460 oh        1 2A7     -0.493600
     11 H71C       -0.4790    0.8980    0.4080 h1        1 2A7      0.047700
     12 H72C       -0.2860    0.0060   -1.1890 h1        1 2A7      0.047700
     13 H73C       -0.4480   -0.9380    0.3820 h1        1 2A7      0.047700
     14 H5          3.9060    0.0570    0.2430 ha        1 2A7      0.162500
     15 H4          0.1190   -0.0390    2.4100 ha        1 2A7      0.162500
     16 H1          5.7290    0.0460    3.2710 ho        1 2A7      0.421500
     17 HA          3.8640   -0.0050    4.5920 ha        1 2A7      0.137000
     18 H8          1.7640   -0.0550    5.5060 ho        1 2A7      0.421500
@<TRIPOS>BOND
     1    1    2 1   
     2    1   11 1   
     3    1   12 1   
     4    1   13 1   
     5    2    3 1   
     6    3    4 ar  
     7    3    9 ar  
     8    4    5 ar  
     9    4   14 1   
    10    5    6 1   
    11    5    7 ar  
    12    6   16 1   
    13    7    8 ar  
    14    7   17 1   
    15    8    9 ar  
    16    8   10 1   
    17    9   15 1   
    18   10   18 1   
@<TRIPOS>SUBSTRUCTURE
     1 2A7         1 TEMP              0 ****  ****    0 ROOT
