@<TRIPOS>MOLECULE
2A8
   42    45     1     0     0
SMALL
bcc


@<TRIPOS>ATOM
      1 NAA          0.0000     0.0000     0.0000 nv         1 2A8      -0.552200
      2 CAC          2.2480    -2.6360    10.8280 ca         1 2A8      -0.085000
      3 CAD          1.0150    -2.4020    10.2400 ca         1 2A8      -0.103000
      4 CAE          3.3270    -1.8150    10.5550 ca         1 2A8      -0.110000
      5 CAF          3.6780     0.0000     0.0000 ca         1 2A8      -0.146000
      6 CAG          3.9440     0.0000     1.3570 ca         1 2A8      -0.057000
      7 CAH          2.3720     0.0000    -0.4520 ca         1 2A8      -0.070000
      8 CAI          0.8640    -1.3320     9.3740 ca         1 2A8      -0.061300
      9 CAJ          3.1820    -0.7430     9.6930 ca         1 2A8      -0.049000
     10 CAK          0.1330    -0.6180     5.0340 ca         1 2A8      -0.176000
     11 CAL          1.7380     1.1010     4.5240 ca         1 2A8      -0.166000
     12 CAM          2.9060    -0.0010     2.2700 ca         1 2A8      -0.187000
     13 CAN          0.3750    -0.4910     6.3910 ca         1 2A8      -0.003300
     14 CAO          1.9900     1.2360     5.8550 ca         1 2A8      -0.023000
     15 CA0         -0.4590    -1.0740     8.7210 c3         1 2A8       0.020900
     16 NAP          0.5390    -0.0010     2.7460 nu         1 2A8      -0.221000
     17 CAQ          1.7120     0.6310     8.2060 c          1 2A8       0.655300
     18 CA1         -0.4650    -1.3970     7.2510 c3         1 2A8       0.033900
     19 CAR          1.3230    -0.0010     0.4550 ca         1 2A8      -0.041400
     20 CAS          0.8010     0.1590     4.1020 ca         1 2A8       0.042600
     21 CAT          1.9370    -0.5110     9.1120 ca         1 2A8      -0.152600
     22 CAU          1.3220     0.4360     6.8030 ca         1 2A8      -0.189600
     23 CAV          1.5920    -0.0010     1.8250 ca         1 2A8       0.027600
     24 HAA1        -0.4600    -0.8660    -0.2030 hn         1 2A8       0.269300
     25 HAA2        -0.4730     0.8670    -0.1620 hn         1 2A8       0.269300
     26 HAC          2.3680    -3.4740    11.5040 ha         1 2A8       0.102000
     27 HAD          0.1750    -3.0500    10.4580 ha         1 2A8       0.108000
     28 HAE          4.2860    -2.0080    11.0210 ha         1 2A8       0.106000
     29 HAJ          4.0220    -0.0950     9.4740 ha         1 2A8       0.112000
     30 HAF          4.4960     0.0010    -0.7110 ha         1 2A8       0.104000
     31 HAG          4.9690    -0.0000     1.7060 ha         1 2A8       0.099000
     32 HAH          2.1670     0.0000    -1.5160 ha         1 2A8       0.105000
     33 HAM          3.1190    -0.0010     3.3320 ha         1 2A8       0.134000
     34 HA01        -1.2000    -1.6970     9.2050 hc         1 2A8       0.027200
     35 HA02        -0.6890    -0.0210     8.8340 hc         1 2A8       0.027200
     36 HAK         -0.5920    -1.3460     4.6920 ha         1 2A8       0.113000
     37 HAL          2.2650     1.7120     3.8010 ha         1 2A8       0.133000
     38 HAO          2.7160     1.9660     6.1890 ha         1 2A8       0.115000
     39 HA11        -1.4880    -1.3470     6.8980 hc         1 2A8       0.025200
     40 HA12        -0.1050    -2.4110     7.1260 hc         1 2A8       0.025200
     41 HAP         -0.4050    -0.0930     2.4270 hn         1 2A8       0.291800
     42 OAB          1.8520     1.7620     8.6310 o          1 2A8      -0.553100
@<TRIPOS>BOND
     1     1    19 1   
     2     1    24 1   
     3     1    25 1   
     4     2     3 ar  
     5     2     4 ar  
     6     2    26 1   
     7     3     8 ar  
     8     3    27 1   
     9     4     9 ar  
    10     4    28 1   
    11     5     6 ar  
    12     5     7 ar  
    13     5    30 1   
    14     6    12 ar  
    15     6    31 1   
    16     7    19 ar  
    17     7    32 1   
    18     8    15 1   
    19     8    21 ar  
    20     9    21 ar  
    21     9    29 1   
    22    10    13 ar  
    23    10    20 ar  
    24    10    36 1   
    25    11    14 ar  
    26    11    20 ar  
    27    11    37 1   
    28    12    23 ar  
    29    12    33 1   
    30    13    18 1   
    31    13    22 ar  
    32    14    22 ar  
    33    14    38 1   
    34    15    18 1   
    35    15    34 1   
    36    15    35 1   
    37    16    20 1   
    38    16    23 1   
    39    16    41 1   
    40    17    21 1   
    41    17    22 1   
    42    17    42 2   
    43    18    39 1   
    44    18    40 1   
    45    19    23 ar  
@<TRIPOS>SUBSTRUCTURE
     1 2A8         1 TEMP              0 ****  ****    0 ROOT
