@<TRIPOS>MOLECULE
2A9
   21    21     1     0     0
SMALL
bcc


@<TRIPOS>ATOM
      1 O7          0.8550    1.1220   -0.4450 oh        1 2A9     -0.599800
      2 C11         1.3260   -0.1520   -0.0290 c3        1 2A9      0.179700
      3 C6          1.8220   -0.0680    1.3770 ca        1 2A9     -0.086300
      4 C1          2.3180   -1.2370    1.9670 ca        1 2A9     -0.139000
      5 C2          2.7920   -1.2000    3.2810 ca        1 2A9      0.110100
      6 C3          2.7680    0.0150    4.0060 ca        1 2A9      0.044100
      7 O8          3.2680   -2.3770    3.8110 oh        1 2A9     -0.498100
      8 C5          1.8010    1.1270    2.0970 ca        1 2A9     -0.105000
      9 C4          2.2720    1.1740    3.4100 ca        1 2A9     -0.165000
     10 O6          3.2640   -0.0700    5.2980 os        1 2A9     -0.349900
     11 C10         3.2430    1.1360    6.0520 c3        1 2A9      0.122700
     12 H7          0.5490    1.0110   -1.3520 ho        1 2A9      0.403000
     13 H111        2.1620   -0.4850   -0.7070 h1        1 2A9      0.032700
     14 H112        0.4890   -0.9020   -0.0920 h1        1 2A9      0.032700
     15 H1          2.3420   -2.1870    1.4140 ha        1 2A9      0.150000
     16 H5          1.4080    2.0400    1.6220 ha        1 2A9      0.156000
     17 H8          3.5580   -2.2010    4.7190 ho        1 2A9      0.436000
     18 H4          2.2470    2.1240    3.9610 ha        1 2A9      0.139000
     19 H101        3.6760    0.8330    7.0390 h1        1 2A9      0.045700
     20 H102        2.1960    1.5040    6.1760 h1        1 2A9      0.045700
     21 H103        3.8780    1.9150    5.5650 h1        1 2A9      0.045700
@<TRIPOS>BOND
     1    1    2 1   
     2    1   12 1   
     3    2    3 1   
     4    2   13 1   
     5    2   14 1   
     6    3    4 ar  
     7    3    8 ar  
     8    4    5 ar  
     9    4   15 1   
    10    5    6 ar  
    11    5    7 1   
    12    6    9 ar  
    13    6   10 1   
    14    7   17 1   
    15    8    9 ar  
    16    8   16 1   
    17    9   18 1   
    18   10   11 1   
    19   11   19 1   
    20   11   20 1   
    21   11   21 1   
@<TRIPOS>SUBSTRUCTURE
     1 2A9         1 TEMP              0 ****  ****    0 ROOT
