@<TRIPOS>MOLECULE
molecule
   21    21     1     0     0
SMALL
bcc


@<TRIPOS>ATOM
      1 O7           0.0000     0.0000     0.0000 oh         1 2A9      -0.605800
      2 C11          1.4290     0.0000     0.0000 c3         1 2A9       0.192700
      3 C6           1.9310     0.0000     1.4210 ca         1 2A9      -0.110300
      4 C1           2.1610    -1.1980     2.0720 ca         1 2A9      -0.114000
      5 C2           2.6220    -1.1990     3.3780 ca         1 2A9       0.077100
      6 C3           2.8530     0.0070     4.0330 ca         1 2A9       0.132100
      7 O8           2.8480    -2.3770     4.0200 oh         1 2A9      -0.503100
      8 C5           2.1660     1.1980     2.0700 ca         1 2A9      -0.079000
      9 C4           2.6210     1.2040     3.3750 ca         1 2A9      -0.213000
     10 O6           3.3060     0.0110     5.3150 os         1 2A9      -0.312900
     11 C10          3.5200     1.2860     5.9230 c3         1 2A9       0.125700
     12 H7          -0.3140     0.0000    -0.8890 ho         1 2A9       0.401000
     13 H111         1.7900     0.8850    -0.5110 h1         1 2A9       0.025700
     14 H112         1.7900    -0.8850    -0.5110 h1         1 2A9       0.025700
     15 H1           1.9800    -2.1350     1.5600 ha         1 2A9       0.144000
     16 H5           1.9840     2.1350     1.5570 ha         1 2A9       0.134000
     17 H8           2.0260    -2.8120     4.1780 ho         1 2A9       0.416000
     18 H4           2.8030     2.1440     3.8820 ha         1 2A9       0.140000
     19 H101         3.8750     1.1470     6.9370 h1         1 2A9       0.041367
     20 H102         4.2580     1.8380     5.3540 h1         1 2A9       0.041367
     21 H103         2.5890     1.8390     5.9390 h1         1 2A9       0.041367
@<TRIPOS>BOND
     1     1     2 1   
     2     2     3 1   
     3     3     4 ar  
     4     3     8 ar  
     5     4     5 ar  
     6     5     6 ar  
     7     5     7 1   
     8     6     9 ar  
     9     6    10 1   
    10     8     9 ar  
    11    10    11 1   
    12     1    12 1   
    13     2    13 1   
    14     2    14 1   
    15     4    15 1   
    16     8    16 1   
    17     7    17 1   
    18     9    18 1   
    19    11    19 1   
    20    11    20 1   
    21    11    21 1   
@<TRIPOS>SUBSTRUCTURE
     1 2A9         1 TEMP              0 ****  ****    0 ROOT
