@<TRIPOS>MOLECULE
molecule
   24    24     1     0     0
SMALL
bcc


@<TRIPOS>ATOM
      1 C1           0.0000     0.0000     0.0000 c3         1 2AB       0.091800
      2 C2           1.5310     0.0000     0.0000 c3         1 2AB      -0.054100
      3 C3           2.0320     0.0000     1.4210 ca         1 2AB      -0.096300
      4 C4           2.2630    -1.1980     2.0720 ca         1 2AB      -0.135500
      5 C5           2.7230    -1.1990     3.3760 ca         1 2AB      -0.033000
      6 C6           2.9530    -0.0020     4.0280 ca         1 2AB      -0.119500
      7 N9          -0.4890     0.0000    -1.3850 nz         1 2AB      -0.811600
      8 S10          3.5400    -0.0030     5.6890 sx         1 2AB       0.691500
      9 O12          5.0520    -0.0030     5.5200 oh         1 2AB      -0.628800
     10 O11          3.2670    -1.3280     6.1240 o          1 2AB      -0.529200
     11 C7           2.7240     1.1960     3.3770 ca         1 2AB      -0.033000
     12 C8           2.2680     1.1960     2.0720 ca         1 2AB      -0.135500
     13 H11         -0.3610     0.8840     0.5110 hx         1 2AB       0.115700
     14 H12A        -0.3610    -0.8850     0.5100 hx         1 2AB       0.115700
     15 H21          1.8920    -0.8850    -0.5100 hc         1 2AB       0.069700
     16 H22          1.8920     0.8850    -0.5100 hc         1 2AB       0.069700
     17 H4           2.0820    -2.1360     1.5600 ha         1 2AB       0.131000
     18 H5           2.9040    -2.1370     3.8850 ha         1 2AB       0.159000
     19 HN91        -1.4900    -0.0000    -1.3850 hn         1 2AB       0.456467
     20 HN92        -0.1550    -0.8160    -1.8570 hn         1 2AB       0.456467
     21 H12          5.4510     0.4370     6.2520 ho         1 2AB       0.471000
     22 H7           2.9070     2.1330     3.8870 ha         1 2AB       0.159000
     23 H8           2.0890     2.1350     1.5610 ha         1 2AB       0.131000
     24 H93         -0.1790     0.8310    -1.8490 hn         1 2AB       0.456467
@<TRIPOS>BOND
     1     1     2 1   
     2     1     7 1   
     3     1    13 1   
     4     1    14 1   
     5     2     3 1   
     6     2    15 1   
     7     2    16 1   
     8     3     4 ar  
     9     3    12 ar  
    10     4     5 ar  
    11     4    17 1   
    12     5     6 ar  
    13     5    18 1   
    14     6     8 1   
    15     6    11 ar  
    16     7    19 1   
    17     7    20 1   
    18     8     9 1   
    19     8    10 2   
    20     9    21 1   
    21    11    12 ar  
    22    11    22 1   
    23    12    23 1   
    24    24     7 1   
@<TRIPOS>SUBSTRUCTURE
     1 2AB         1 TEMP              0 ****  ****    0 ROOT
