@<TRIPOS>MOLECULE
2AC
   18    18     1     0     0
SMALL
bcc


@<TRIPOS>ATOM
      1 N            0.0000     0.0000     0.0000 nv         1 2AC      -0.462200
      2 O            1.4210     0.0020     2.3840 oh         1 2AC      -0.495100
      3 C1           1.3990     0.0000     0.0000 ca         1 2AC       0.032600
      4 C2           2.0970     0.0000     1.2050 ca         1 2AC       0.055100
      5 C3           3.4820    -0.0000     1.1990 ca         1 2AC      -0.120000
      6 C4           4.1690    -0.0020    -0.0010 ca         1 2AC      -0.129000
      7 C5           3.4760    -0.0040    -1.1970 ca         1 2AC      -0.068300
      8 C6           2.0940     0.0030    -1.2000 ca         1 2AC      -0.159000
      9 C8           4.2310    -0.0060    -2.5020 c3         1 2AC       0.065200
     10 HN1         -0.5000     0.4420     0.7460 hn         1 2AC       0.269800
     11 HN2         -0.5000    -0.4220    -0.7570 hn         1 2AC       0.269800
     12 HO           1.6770    -0.7490     2.8940 ho         1 2AC       0.400000
     13 H3           4.0280     0.0010     2.1350 ha         1 2AC       0.106000
     14 H4           5.2520    -0.0050    -0.0040 ha         1 2AC       0.106000
     15 H6           1.5540     0.0020    -2.1390 ha         1 2AC       0.111000
     16 H81          3.8330     0.7660    -3.1500 hc         1 2AC       0.006033
     17 H82          4.1220    -0.9710    -2.9810 hc         1 2AC       0.006033
     18 H83          5.2800     0.1870    -2.3130 hc         1 2AC       0.006033
@<TRIPOS>BOND
     1     1     3 1   
     2     1    10 1   
     3     1    11 1   
     4     2     4 1   
     5     2    12 1   
     6     3     4 ar  
     7     3     8 ar  
     8     4     5 ar  
     9     5     6 ar  
    10     5    13 1   
    11     6     7 ar  
    12     6    14 1   
    13     7     8 ar  
    14     7     9 1   
    15     8    15 1   
    16     9    16 1   
    17     9    17 1   
    18     9    18 1   
@<TRIPOS>SUBSTRUCTURE
     1 2AC         1 TEMP              0 ****  ****    0 ROOT
