@<TRIPOS>MOLECULE
molecule
   19    19     1     0     0
SMALL
bcc


@<TRIPOS>ATOM
      1 C1           0.0000     0.0000     0.0000 ca         1 2AE      -0.294600
      2 C6           1.4040     0.0000     0.0000 ca         1 2AE       0.298600
      3 C5           2.0910     0.0000     1.2070 ca         1 2AE      -0.194000
      4 C4           1.3950    -0.0010     2.3990 ca         1 2AE      -0.013000
      5 C3           0.0090    -0.0010     2.4020 ca         1 2AE      -0.149000
      6 C2          -0.6900     0.0000     1.2140 ca         1 2AE      -0.085000
      7 C           -0.7420     0.0070    -1.2740 c          1 2AE       0.512700
      8 O1          -0.1410     0.1150    -2.3270 o          1 2AE      -0.468100
      9 N           -2.0840    -0.1080    -1.2730 nz         1 2AE      -0.674400
     10 N2           2.1020     0.0010    -1.2010 nv         1 2AE      -0.881200
     11 H2          -1.7730     0.0000     1.2230 ha         1 2AE       0.109000
     12 H3          -0.5280    -0.0010     3.3430 ha         1 2AE       0.161000
     13 H4           1.9350    -0.0010     3.3380 ha         1 2AE       0.165000
     14 H5           3.1750     0.0000     1.2130 ha         1 2AE       0.167000
     15 H21N         1.7070    -0.4380    -2.0090 hn         1 2AE       0.459800
     16 H22N         3.0190     0.3990    -1.2460 hn         1 2AE       0.459800
     17 HN1         -2.4870     0.6860    -0.8160 hn         1 2AE       0.475467
     18 HN2         -2.4160    -0.1550    -2.2160 hn         1 2AE       0.475467
     19 HN3         -2.3470    -0.9420    -0.7850 hn         1 2AE       0.475467
@<TRIPOS>BOND
     1     1     6 ar  
     2     1     2 ar  
     3     1     7 1   
     4     6     5 ar  
     5     5     4 ar  
     6     4     3 ar  
     7     3     2 ar  
     8     2    10 1   
     9     7     8 2   
    10     7     9 1   
    11     6    11 1   
    12     5    12 1   
    13     4    13 1   
    14     3    14 1   
    15    10    15 1   
    16    10    16 1   
    17     9    17 1   
    18     9    18 1   
    19    19     9 1   
@<TRIPOS>SUBSTRUCTURE
     1 2AE         1 TEMP              0 ****  ****    0 ROOT
