@<TRIPOS>MOLECULE
molecule
   15    15     1     0     0
SMALL
bcc


@<TRIPOS>ATOM
      1 N            0.0000     0.0000     0.0000 nv         1 2AF      -0.967200
      2 O            1.4200    -0.0060     2.3840 oh         1 2AF      -0.501100
      3 C1           1.4000     0.0000     0.0000 ca         1 2AF       0.150600
      4 C2           2.0970     0.0000     1.2050 ca         1 2AF       0.099100
      5 C3           3.4810    -0.0050     1.2000 ca         1 2AF      -0.200000
      6 C4           4.1680     0.0010     0.0010 ca         1 2AF      -0.113000
      7 C5           3.4770     0.0060    -1.1960 ca         1 2AF      -0.147000
      8 C6           2.0950     0.0060    -1.2000 ca         1 2AF      -0.128000
      9 HN1         -0.5000    -0.7840     0.3700 hn         1 2AF       0.428800
     10 HN2         -0.5000     0.8000    -0.3340 hn         1 2AF       0.428800
     11 HO           1.9290     0.4400     3.0410 ho         1 2AF       0.418000
     12 H3           4.0260    -0.0090     2.1360 ha         1 2AF       0.130000
     13 H4           5.2520    -0.0010    -0.0010 ha         1 2AF       0.129000
     14 H5           4.0200     0.0110    -2.1340 ha         1 2AF       0.130000
     15 H6           1.5550     0.0100    -2.1390 ha         1 2AF       0.138000
@<TRIPOS>BOND
     1     1     3 1
     2     1     9 1
     3     1    10 1
     4     2     4 1
     5     2    11 1
     6     3     4 ar
     7     3     8 ar
     8     4     5 ar
     9     5     6 ar
    10     5    12 1
    11     6     7 ar
    12     6    13 1
    13     7     8 ar
    14     7    14 1
    15     8    15 1
@<TRIPOS>SUBSTRUCTURE
     1 2AF         1 TEMP              0 ****  ****    0 ROOT
