@<TRIPOS>MOLECULE
molecule
   11    11     1     0     0
SMALL
bcc


@<TRIPOS>ATOM
      1 CG           0.0000     0.0000     0.0000 cc         1 2AI      -0.294600
      2 CD2          1.3440     0.0000     0.0000 cd         1 2AI       0.334200
      3 NE2          1.7660     0.0000     1.2760 nd         1 2AI      -0.741000
      4 CE1          0.7270     0.0000     2.0770 cc         1 2AI       0.668400
      5 ND1         -0.4010     0.0000     1.3170 na         1 2AI      -0.329900
      6 NT           0.7710    -0.0000     3.4620 nv         1 2AI      -1.026500
      7 HG          -0.6450    -0.0000    -0.8700 h4         1 2AI       0.171000
      8 HD2          1.9780     0.0000    -0.8780 h4         1 2AI       0.038100
      9 HND1        -1.3440    -0.0000     1.6520 hn         1 2AI       0.292700
     10 HNT          1.5130    -0.4720     3.9390 hn         1 2AI       0.444300
     11 HNTA         0.0620     0.4760     3.9840 hn         1 2AI       0.444300
@<TRIPOS>BOND
     1     1     2 2
     2     1     5 1
     3     2     3 1
     4     3     4 2
     5     4     5 1
     6     4     6 1
     7     1     7 1
     8     2     8 1
     9     5     9 1
    10     6    10 1
    11     6    11 1
@<TRIPOS>SUBSTRUCTURE
     1 2AI         1 TEMP              0 ****  ****    0 ROOT
