@<TRIPOS>MOLECULE
molecule
   19    20     1     0     0
SMALL
bcc


@<TRIPOS>ATOM
      1 Br1          0.0000     0.0000     0.0000 br         1 2AK      -0.084100
      2 C5           1.8910     0.0000     0.0000 ca         1 2AK      -0.063900
      3 C4           2.5810     0.0000     1.1980 ca         1 2AK      -0.039000
      4 C3           3.9650    -0.0010     1.2170 ca         1 2AK      -0.124300
      5 C12          4.7000    -0.0010     2.5320 c3         1 2AK      -0.043800
      6 C2           4.6730    -0.0020     0.0320 ca         1 2AK      -0.010000
      7 C6           2.5840    -0.0050    -1.2050 ca         1 2AK       0.112600
      8 N7           2.1360    -0.0110    -2.5250 ns         1 2AK      -0.458100
      9 C8           3.1630    -0.0160    -3.3920 c          1 2AK       0.615500
     10 O11          3.0810    -0.0210    -4.6010 o          1 2AK      -0.543500
     11 C9           4.4310    -0.0130    -2.5890 c          1 2AK       0.511700
     12 C1           3.9870    -0.0010    -1.1830 ca         1 2AK      -0.245600
     13 O10          5.5710    -0.0150    -3.0050 o          1 2AK      -0.437100
     14 H1           2.0330     0.0010     2.1330 ha         1 2AK       0.154000
     15 H2           5.6580    -0.4920     2.4100 hc         1 2AK       0.049033
     16 H3           4.8570     1.0200     2.8580 hc         1 2AK       0.049033
     17 H4           4.1150    -0.5310     3.2730 hc         1 2AK       0.049033
     18 H5           5.7560    -0.0030     0.0460 ha         1 2AK       0.153000
     19 H6           1.1720    -0.0120    -2.7930 hn         1 2AK       0.355500
@<TRIPOS>BOND
     1     1     2 1
     2     3     2 ar
     3     3     4 ar
     4     2     7 ar
     5     5     4 1
     6     4     6 ar
     7     7     8 1
     8     7    12 ar
     9     8     9 1
    10     6    12 ar
    11    12    11 1
    12     9    11 1
    13     9    10 2
    14    11    13 2
    15     3    14 1
    16     5    15 1
    17     5    16 1
    18     5    17 1
    19     6    18 1
    20     8    19 1
@<TRIPOS>SUBSTRUCTURE
     1 2AK         1 TEMP              0 ****  ****    0 ROOT
