@<TRIPOS>MOLECULE
2AK
   19    20     1     0     0
SMALL
bcc


@<TRIPOS>ATOM
      1 Br1          0.0000     0.0000     0.0000 br         1 2AK      -0.112100
      2 C5           1.8910     0.0000     0.0000 ca         1 2AK      -0.005900
      3 C4           2.5810     0.0000     1.1980 ca         1 2AK      -0.019000
      4 C3           3.9650    -0.0010     1.2170 ca         1 2AK      -0.130300
      5 C12          4.7000    -0.0010     2.5320 c3         1 2AK       0.070200
      6 C2           4.6730    -0.0020     0.0320 ca         1 2AK       0.028000
      7 C6           2.5840    -0.0050    -1.2050 ca         1 2AK      -0.044400
      8 N7           2.1360    -0.0110    -2.5250 ns         1 2AK      -0.007100
      9 C8           3.1630    -0.0160    -3.3920 c          1 2AK       0.510500
     10 O11          3.0810    -0.0210    -4.6010 o          1 2AK      -0.585500
     11 C9           4.4310    -0.0130    -2.5890 c          1 2AK       0.556700
     12 C1           3.9870    -0.0010    -1.1830 ca         1 2AK      -0.257600
     13 O10          5.5710    -0.0150    -3.0050 o          1 2AK      -0.467100
     14 H1           2.0330     0.0010     2.1330 ha         1 2AK       0.122000
     15 H2           5.6580    -0.4920     2.4100 hc         1 2AK       0.011367
     16 H3           4.8570     1.0200     2.8580 hc         1 2AK       0.011367
     17 H4           4.1150    -0.5310     3.2730 hc         1 2AK       0.011367
     18 H5           5.7560    -0.0030     0.0460 ha         1 2AK       0.118000
     19 H6           1.1720    -0.0120    -2.7930 hn         1 2AK       0.191500
@<TRIPOS>BOND
     1     1     2 1   
     2     2     3 ar  
     3     2     7 ar  
     4     3     4 ar  
     5     3    14 1   
     6     4     5 1   
     7     4     6 ar  
     8     5    15 1   
     9     5    16 1   
    10     5    17 1   
    11     6    12 ar  
    12     6    18 1   
    13     7     8 1   
    14     7    12 ar  
    15     8     9 1   
    16     8    19 1   
    17     9    10 2   
    18     9    11 1   
    19    11    12 1   
    20    11    13 2   
@<TRIPOS>SUBSTRUCTURE
     1 2AK         1 TEMP              0 ****  ****    0 ROOT
