@<TRIPOS>MOLECULE
2AL
   17    17     1     0     0
SMALL
bcc


@<TRIPOS>ATOM
      1 C4          0.0130    0.0550   -0.2720 cc        1 2AL      0.368200
      2 C5          1.5590    0.3100    0.0630 c         1 2AL      0.646200
      3 O5          2.2820    0.9620   -0.6630 o         1 2AL     -0.431500
      4 N7          1.7000   -0.3650    1.2650 n         1 2AL     -0.557500
      5 C8          0.4710   -0.9640    1.6810 c         1 2AL      0.841900
      6 O8          0.2370   -1.6210    2.6760 o         1 2AL     -0.347500
      7 N9         -0.5870   -0.6480    0.6380 nd        1 2AL     -0.566100
      8 N3         -0.5760    0.5970   -1.4950 n4        1 2AL     -0.588800
      9 C2         -2.0670    0.7830   -1.4860 c         1 2AL      0.492100
     10 N1         -2.9410   -0.3310   -1.0280 n4        1 2AL     -0.712400
     11 O2         -2.5490    1.8410   -1.8470 o         1 2AL     -0.243100
     12 HN7         2.5540   -0.4250    1.7900 hn        1 2AL      0.438500
     13 HN3        -0.1430    1.5440   -1.6520 hn        1 2AL      0.539800
     14 HN11       -3.0440   -0.3010    0.0100 hn        1 2AL      0.526467
     15 HN12       -2.5890   -1.2640   -1.2950 hn        1 2AL      0.526467
     16 H32        -0.2950   -0.0090   -2.2960 hn        1 2AL      0.539800
     17 H13        -3.8870   -0.1930   -1.4480 hn        1 2AL      0.526467
@<TRIPOS>BOND
     1    1    2 1
     2    1    7 2
     3    1    8 1
     4    2    3 2
     5    2    4 1
     6    4    5 1
     7    4   12 1
     8    5    6 2
     9    5    7 1
    10    8    9 1
    11    8   13 1
    12    8   16 1
    13    9   10 1
    14    9   11 2
    15   10   14 1
    16   10   15 1
    17   10   17 1
@<TRIPOS>SUBSTRUCTURE
     1 2AL         1 TEMP              0 ****  ****    0 ROOT
