@<TRIPOS>MOLECULE
molecule
   35    37     1     0     0
SMALL
bcc


@<TRIPOS>ATOM
      1 P            0.0000     0.0000     0.0000 p5         1 2AM       1.131900
      2 O1P          1.4800     0.0000     0.0000 o          1 2AM      -0.898167
      3 O2P         -0.5360     0.0000     1.5170 o          1 2AM      -0.898167
      4 O3P         -0.5370    -1.3140    -0.7590 o          1 2AM      -0.898167
      5 C5'          1.0970     3.7900    -4.5610 c3         1 2AM       0.141400
      6 O5'          0.3970     4.3500    -5.6730 oh         1 2AM      -0.605800
      7 C4'          0.0930     3.1870    -3.5770 c3         1 2AM       0.119100
      8 O4'         -0.6550     2.1260    -4.2080 os         1 2AM      -0.444600
      9 C3'          0.8290     2.5060    -2.4030 c3         1 2AM       0.106100
     10 O3'          0.8760     3.3750    -1.2690 oh         1 2AM      -0.561800
     11 C2'         -0.0280     1.2570    -2.0940 c3         1 2AM       0.150100
     12 O2'         -0.5350     1.3140    -0.7600 os         1 2AM      -0.483200
     13 C1'         -1.1780     1.3310    -3.1210 c3         1 2AM       0.225800
     14 N9          -1.5270    -0.0100    -3.5930 na         1 2AM      -0.218000
     15 C8          -0.9670    -0.6660    -4.6490 cc         1 2AM       0.432700
     16 N7          -1.5150    -1.8380    -4.7870 nd         1 2AM      -0.635100
     17 C5          -2.4560    -2.0110    -3.8280 ca         1 2AM      -0.193200
     18 C6          -3.3500    -3.0430    -3.4970 ca         1 2AM       0.765200
     19 N6          -3.3770    -4.2190    -4.2270 nv         1 2AM      -1.021500
     20 N1          -4.1650    -2.8670    -2.4630 nb         1 2AM      -0.853000
     21 C2          -4.1470    -1.7470    -1.7610 ca         1 2AM       0.727900
     22 N3          -3.3310    -0.7530    -2.0390 nb         1 2AM      -0.710000
     23 C4          -2.4790    -0.8390    -3.0540 ca         1 2AM       0.547800
     24 H5'1         1.6670     4.5660    -4.0650 h1         1 2AM       0.020700
     25 H5'2         1.7690     3.0160    -4.9100 h1         1 2AM       0.020700
     26 HO5'         1.0140     4.5850    -6.3470 ho         1 2AM       0.379000
     27 H3'          1.8270     2.2130    -2.7040 h1         1 2AM       0.036700
     28 H2'          0.5540     0.3550    -2.2460 h1         1 2AM       0.108700
     29 H1'         -2.0410     1.8180    -2.6820 h2         1 2AM       0.096700
     30 H8          -0.1820    -0.2690    -5.2810 h5         1 2AM       0.062800
     31 HN61        -2.5880    -4.4810    -4.7830 hn         1 2AM       0.425800
     32 HN62        -4.1830    -4.8110    -4.1910 hn         1 2AM       0.425800
     33 H2          -4.8290    -1.6450    -0.9250 h5         1 2AM       0.043100
     34 H4'         -0.5810     3.9490    -3.2040 h1         1 2AM       0.066700
     35 HO3'         1.7750     3.5420    -1.0380 ho         1 2AM       0.387000
@<TRIPOS>BOND
     1     1     2 1   
     2     1     3 1   
     3     1     4 1   
     4     1    12 1   
     5     5     6 1   
     6     5     7 1   
     7     5    24 1   
     8     5    25 1   
     9     6    26 1   
    10     7     8 1   
    11     7     9 1   
    12     7    34 1   
    13     8    13 1   
    14     9    10 1   
    15     9    11 1   
    16     9    27 1   
    17    10    35 1   
    18    11    12 1   
    19    11    13 1   
    20    11    28 1   
    21    13    14 1   
    22    13    29 1   
    23    14    15 1   
    24    14    23 1   
    25    15    16 2   
    26    15    30 1   
    27    16    17 1   
    28    17    18 ar  
    29    17    23 ar  
    30    18    19 1   
    31    18    20 ar  
    32    19    31 1   
    33    19    32 1   
    34    20    21 ar  
    35    21    22 ar  
    36    21    33 1   
    37    22    23 ar  
@<TRIPOS>SUBSTRUCTURE
     1 2AM         1 TEMP              0 ****  ****    0 ROOT
