@<TRIPOS>MOLECULE
molecule
   33    35     1     0     0
SMALL
bcc


@<TRIPOS>ATOM
      1 C1           0.0000     0.0000     0.0000 ca         1 2AN       0.186600
      2 C2           1.3780     0.0000     0.0000 ca         1 2AN      -0.181000
      3 C3           2.0900     0.0000     1.1950 ca         1 2AN      -0.123000
      4 C4           1.4470     0.0020     2.3960 ca         1 2AN      -0.150000
      5 C5           0.0420     0.0030     2.4400 ca         1 2AN      -0.036000
      6 C6          -0.6470     0.0030     3.6650 ca         1 2AN      -0.121000
      7 C7          -2.0080     0.0030     3.6720 ca         1 2AN      -0.142000
      8 C8          -2.7300     0.0030     2.4800 ca         1 2AN      -0.042000
      9 N           -0.7030    -0.0010    -1.2040 nu         1 2AN      -0.711000
     10 C9          -2.0960     0.0020     1.2760 ca         1 2AN      -0.229500
     11 C10         -0.6930    -0.0030     1.2300 ca         1 2AN       0.016000
     12 C11         -0.4220     0.9600    -2.1770 ca         1 2AN       0.264600
     13 C12         -1.0070     0.8670    -3.4350 ca         1 2AN      -0.183500
     14 C13         -0.7270     1.8200    -4.3960 ca         1 2AN      -0.099000
     15 C14          0.1320     2.8640    -4.1070 ca         1 2AN      -0.202000
     16 C15          0.7160     2.9590    -2.8570 ca         1 2AN      -0.099000
     17 C16          0.4370     2.0130    -1.8900 ca         1 2AN      -0.183500
     18 O1          -2.6350     1.1610    -0.9390 o          1 2AN      -0.704200
     19 O2          -2.9380    -1.3130    -0.7490 o          1 2AN      -0.704200
     20 O3          -4.4880     0.2110     0.1630 o          1 2AN      -0.704200
     21 H2           1.9140    -0.0010    -0.9420 ha         1 2AN       0.132000
     22 H3           3.1730    -0.0000     1.1700 ha         1 2AN       0.111000
     23 H4           2.0180     0.0020     3.3170 ha         1 2AN       0.113000
     24 H6          -0.0980     0.0030     4.5990 ha         1 2AN       0.112000
     25 H7          -2.5370     0.0040     4.6170 ha         1 2AN       0.111000
     26 H8          -3.8130     0.0030     2.5130 ha         1 2AN       0.159000
     27 HN          -1.3590    -0.7320    -1.3980 hn         1 2AN       0.489800
     28 H12         -1.6800     0.0500    -3.6610 ha         1 2AN       0.135000
     29 H13         -1.1820     1.7490    -5.3760 ha         1 2AN       0.109500
     30 H14          0.3510     3.6080    -4.8630 ha         1 2AN       0.105000
     31 H15          1.3870     3.7790    -2.6340 ha         1 2AN       0.109500
     32 H16          0.8940     2.0880    -0.9110 ha         1 2AN       0.135000
     33 S           -3.0300     0.0030    -0.2180 s6         1 2AN       1.328100
@<TRIPOS>BOND
     1     1     2 ar  
     2     1     9 1   
     3     1    11 ar  
     4     2     3 ar  
     5     2    21 1   
     6     3     4 ar  
     7     3    22 1   
     8     4     5 ar  
     9     4    23 1   
    10     5     6 ar  
    11     5    11 ar  
    12     6     7 ar  
    13     6    24 1   
    14     7     8 ar  
    15     7    25 1   
    16     8    10 ar  
    17     8    26 1   
    18     9    12 1   
    19     9    27 1   
    20    33    10 1   
    21    33    18 1   
    22    33    19 1   
    23    33    20 1   
    24    10    11 ar  
    25    12    13 ar  
    26    12    17 ar  
    27    13    14 ar  
    28    13    28 1   
    29    14    15 ar  
    30    14    29 1   
    31    15    16 ar  
    32    15    30 1   
    33    16    17 ar  
    34    16    31 1   
    35    17    32 1   
@<TRIPOS>SUBSTRUCTURE
     1 2AN         1 TEMP              0 ****  ****    0 ROOT
