@<TRIPOS>MOLECULE
2AN
   33    35     1     0     0
SMALL
bcc


@<TRIPOS>ATOM
      1 C1           0.0000     0.0000     0.0000 ca         1 2AN       0.066600
      2 C2           1.3780     0.0000     0.0000 ca         1 2AN      -0.176000
      3 C3           2.0900     0.0000     1.1950 ca         1 2AN      -0.093000
      4 C4           1.4470     0.0020     2.3960 ca         1 2AN      -0.133000
      5 C5           0.0420     0.0030     2.4400 ca         1 2AN      -0.040000
      6 C6          -0.6470     0.0030     3.6650 ca         1 2AN      -0.102000
      7 C7          -2.0080     0.0030     3.6720 ca         1 2AN      -0.125000
      8 C8          -2.7300     0.0030     2.4800 ca         1 2AN      -0.018000
      9 N           -0.7030    -0.0010    -1.2040 nu         1 2AN      -0.306000
     10 C9          -2.0960     0.0020     1.2760 ca         1 2AN      -0.076500
     11 C10         -0.6930    -0.0030     1.2300 ca         1 2AN       0.018000
     12 C11         -0.4220     0.9600    -2.1770 ca         1 2AN       0.139600
     13 C12         -1.0070     0.8670    -3.4350 ca         1 2AN      -0.172500
     14 C13         -0.7270     1.8200    -4.3960 ca         1 2AN      -0.070000
     15 C14          0.1320     2.8640    -4.1070 ca         1 2AN      -0.191000
     16 C15          0.7160     2.9590    -2.8570 ca         1 2AN      -0.070000
     17 C16          0.4370     2.0130    -1.8900 ca         1 2AN      -0.172500
     18 O1          -2.6350     1.1610    -0.9390 o          1 2AN      -0.649533
     19 O2          -2.9380    -1.3130    -0.7490 o          1 2AN      -0.649533
     20 O3          -4.4880     0.2110     0.1630 o          1 2AN      -0.649533
     21 H2           1.9140    -0.0010    -0.9420 ha         1 2AN       0.111000
     22 H3           3.1730    -0.0000     1.1700 ha         1 2AN       0.084000
     23 H4           2.0180     0.0020     3.3170 ha         1 2AN       0.091000
     24 H6          -0.0980     0.0030     4.5990 ha         1 2AN       0.088000
     25 H7          -2.5370     0.0040     4.6170 ha         1 2AN       0.086000
     26 H8          -3.8130     0.0030     2.5130 ha         1 2AN       0.132000
     27 HN          -1.3590    -0.7320    -1.3980 hn         1 2AN       0.371800
     28 H12         -1.6800     0.0500    -3.6610 ha         1 2AN       0.114500
     29 H13         -1.1820     1.7490    -5.3760 ha         1 2AN       0.081000
     30 H14          0.3510     3.6080    -4.8630 ha         1 2AN       0.084000
     31 H15          1.3870     3.7790    -2.6340 ha         1 2AN       0.081000
     32 H16          0.8940     2.0880    -0.9110 ha         1 2AN       0.114500
     33 S           -3.0300     0.0030    -0.2180 s6         1 2AN       1.031100
@<TRIPOS>BOND
     1     1     2 ar  
     2     1     9 1   
     3     1    11 ar  
     4     2     3 ar  
     5     2    21 1   
     6     3     4 ar  
     7     3    22 1   
     8     4     5 ar  
     9     4    23 1   
    10     5     6 ar  
    11     5    11 ar  
    12     6     7 ar  
    13     6    24 1   
    14     7     8 ar  
    15     7    25 1   
    16     8    10 ar  
    17     8    26 1   
    18     9    12 1   
    19     9    27 1   
    20    10    11 ar  
    21    10    33 1   
    22    12    13 ar  
    23    12    17 ar  
    24    13    14 ar  
    25    13    28 1   
    26    14    15 ar  
    27    14    29 1   
    28    15    16 ar  
    29    15    30 1   
    30    16    17 ar  
    31    16    31 1   
    32    17    32 1   
    33    18    33 1   
    34    19    33 1   
    35    20    33 1   
@<TRIPOS>SUBSTRUCTURE
     1 2AN         1 TEMP              0 ****  ****    0 ROOT
