@<TRIPOS>MOLECULE
2AP
   14    14     1     0     0
SMALL
bcc


@<TRIPOS>ATOM
      1 N1           0.0000     0.0000     0.0000 na         1 2AP       0.584900
      2 C2           1.3240     0.0000     0.0000 ca         1 2AP      -0.238500
      3 C3           2.0330     0.0000     1.1970 ca         1 2AP      -0.055000
      4 C4           1.3350    -0.0040     2.3920 ca         1 2AP      -0.004000
      5 C5          -0.0530    -0.0100     2.3480 ca         1 2AP      -0.042000
      6 C6          -0.6920    -0.0100     1.1240 ca         1 2AP      -0.243300
      7 N            2.0130     0.0050    -1.2070 nv         1 2AP      -0.094200
      8 HN1         -0.4880     0.0000    -0.8740 hn         1 2AP       0.134700
      9 H3           3.1160     0.0020     1.1940 ha         1 2AP       0.159000
     10 H4           1.8590    -0.0040     3.3400 ha         1 2AP       0.150000
     11 H5          -0.6300    -0.0160     3.2650 ha         1 2AP       0.155000
     12 H6          -1.7750    -0.0120     1.0850 h4         1 2AP       0.172000
     13 HN1A         2.2670    -0.8600    -1.6420 hn         1 2AP       0.160700
     14 HN2          2.2640     0.8740    -1.6370 hn         1 2AP       0.160700
@<TRIPOS>BOND
     1     1     2 1   
     2     1     6 2   
     3     1     8 1   
     4     2     3 ar  
     5     2     7 1   
     6     3     4 ar  
     7     3     9 1   
     8     4     5 ar  
     9     4    10 1   
    10     5     6 ar  
    11     5    11 1   
    12     6    12 1   
    13     7    13 1   
    14     7    14 1   
@<TRIPOS>SUBSTRUCTURE
     1 2AP         1 TEMP              0 ****  ****    0 ROOT
