@<TRIPOS>MOLECULE
2AQ
   19    20     1     0     0
SMALL
bcc


@<TRIPOS>ATOM
      1 N1           0.0000     0.0000     0.0000 nv         1 2AQ      -0.639500
      2 C2           1.4170     0.0000     0.0000 ca         1 2AQ       0.505200
      3 C3           2.0500     0.0000     1.2270 ca         1 2AQ      -0.238300
      4 C4           3.4370     0.0000     1.2330 ca         1 2AQ      -0.037000
      5 C5           4.1470     0.0010     0.0250 ca         1 2AQ      -0.165300
      6 C6           5.5530     0.0020    -0.0030 ca         1 2AQ      -0.073000
      7 C7           6.2330     0.0020    -1.2170 ca         1 2AQ      -0.110000
      8 C8           5.5140     0.0030    -2.4060 ca         1 2AQ      -0.085000
      9 C9           4.1180     0.0020    -2.3790 ca         1 2AQ      -0.157300
     10 C10          3.4110     0.0020    -1.1790 ca         1 2AQ       0.396600
     11 N11          2.0640     0.0010    -1.1880 nb         1 2AQ      -0.605000
     12 HN11        -0.5000     0.7680     0.4020 hn         1 2AQ       0.275800
     13 HN12        -0.5000    -0.7610    -0.4140 hn         1 2AQ       0.275800
     14 H3           1.5050    -0.2890     2.1170 ha         1 2AQ       0.124000
     15 H4           3.9730     0.0000     2.1740 ha         1 2AQ       0.104000
     16 H6           6.1100     0.0020     0.9260 ha         1 2AQ       0.104000
     17 H7           7.3160     0.0030    -1.2350 ha         1 2AQ       0.105000
     18 H8           6.0370     0.0030    -3.3550 ha         1 2AQ       0.104000
     19 H9           3.5710     0.0020    -3.3140 ha         1 2AQ       0.115000
@<TRIPOS>BOND
     1     1     2 1   
     2     1    12 1   
     3     1    13 1   
     4     2     3 ar  
     5     2    11 ar  
     6     3     4 ar  
     7     3    14 1   
     8     4     5 ar  
     9     4    15 1   
    10     5     6 ar  
    11     5    10 ar  
    12     6     7 ar  
    13     6    16 1   
    14     7     8 ar  
    15     7    17 1   
    16     8     9 ar  
    17     8    18 1   
    18     9    10 ar  
    19     9    19 1   
    20    10    11 ar  
@<TRIPOS>SUBSTRUCTURE
     1 2AQ         1 TEMP              0 ****  ****    0 ROOT
