@<TRIPOS>MOLECULE
2AW
   46    45     1     0     0
SMALL
bcc


@<TRIPOS>ATOM
      1 OAC          0.0000     0.0000     0.0000 o          1 2AW      -0.915300
      2 CAT          1.3420     0.0000     0.0000 c          1 2AW       0.982600
      3 OAH          1.9460     0.0000     1.0460 o          1 2AW      -0.915300
      4 CAO          2.0950    -0.0020    -1.3060 c3         1 2AW      -0.131400
      5 CAM          3.5990    -0.0020    -1.0270 c3         1 2AW      -0.018400
      6 CAN          4.3640    -0.0030    -2.3510 c3         1 2AW      -0.030400
      7 CAP          5.8680    -0.0030    -2.0720 c3         1 2AW      -0.071400
      8 CAV          6.6220    -0.0050    -3.3770 c          1 2AW       0.687100
      9 OAE          6.0170    -0.0060    -4.4240 o          1 2AW      -0.597000
     10 OAS          7.9640    -0.0060    -3.3780 os         1 2AW      -0.402900
     11 CG1          8.6230    -0.0070    -4.6720 c3         1 2AW       0.165400
     12 CB          10.1400    -0.0070    -4.4710 c3         1 2AW       0.124300
     13 CG2         10.5510    -1.2560    -3.6890 c3         1 2AW       0.018900
     14 SAX         10.6280     1.4740    -3.5460 s4         1 2AW       0.306700
     15 OAF          9.8010     1.6100    -2.3980 o          1 2AW      -0.512200
     16 OAG         10.1560     2.6100    -4.4430 oh         1 2AW      -0.548800
     17 CA          10.8350    -0.0090    -5.8350 c3         1 2AW       0.035500
     18 C           10.3350    -1.1730    -6.6510 c          1 2AW       0.958600
     19 OXT          9.0310    -1.2720    -6.9520 o          1 2AW      -0.876300
     20 O           11.1090    -2.0170    -7.0360 o          1 2AW      -0.876300
     21 N           12.2860    -0.1300    -5.6440 n7         1 2AW      -0.610200
     22 CAL         13.0160     0.4390    -6.7860 c3         1 2AW       0.157800
     23 CAK         14.5200     0.2950    -6.5530 c3         1 2AW      -0.160400
     24 CAJ         15.2690     0.8790    -7.7230 c          1 2AW       0.669900
     25 OAB         16.1020     1.7340    -7.5410 o          1 2AW      -0.593100
     26 H2           1.8340     0.8830    -1.8750 hc         1 2AW       0.005200
     27 H3           1.8330    -0.8860    -1.8730 hc         1 2AW       0.005200
     28 H4           3.8610    -0.8860    -0.4580 hc         1 2AW       0.016200
     29 H5           3.8620     0.8830    -0.4590 hc         1 2AW       0.016200
     30 H6           4.1020    -0.8880    -2.9180 hc         1 2AW       0.018200
     31 H7           4.1020     0.8810    -2.9200 hc         1 2AW       0.018200
     32 H8           6.1300    -0.8870    -1.5030 hc         1 2AW       0.031200
     33 H9           6.1300     0.8820    -1.5050 hc         1 2AW       0.031200
     34 H10          8.3320    -0.8920    -5.2240 h1         1 2AW       0.070200
     35 H11          8.3320     0.8760    -5.2260 h1         1 2AW       0.070200
     36 H12          9.9680    -1.3200    -2.7780 hc         1 2AW       0.016033
     37 H13         11.6030    -1.1960    -3.4400 hc         1 2AW       0.016033
     38 H14         10.3730    -2.1360    -4.2940 hc         1 2AW       0.016033
     39 H17         10.6140     0.9160    -6.3540 h1         1 2AW       0.045700
     40 H19         12.7650     1.4880    -6.8890 h1         1 2AW       0.014200
     41 H20         14.7970     0.8220    -5.6480 hc         1 2AW       0.037200
     42 H21         14.7710    -0.7540    -6.4510 hc         1 2AW       0.037200
     43 H22         15.0820     0.5090    -8.7240 h4         1 2AW      -0.047800
     44 H23         12.5290    -1.0950    -5.5400 hn         1 2AW       0.284800
     45 H24         12.7390    -0.0880    -7.6910 h1         1 2AW       0.014200
     46 H15         10.4950     3.4280    -4.1190 ho         1 2AW       0.439000
@<TRIPOS>BOND
     1     1     2 1   
     2     2     3 1   
     3     2     4 1   
     4     4     5 1   
     5     4    26 1   
     6     4    27 1   
     7     5     6 1   
     8     5    28 1   
     9     5    29 1   
    10     6     7 1   
    11     6    30 1   
    12     6    31 1   
    13     7     8 1   
    14     7    32 1   
    15     7    33 1   
    16     8     9 2   
    17     8    10 1   
    18    10    11 1   
    19    11    12 1   
    20    11    34 1   
    21    11    35 1   
    22    12    13 1   
    23    12    14 1   
    24    12    17 1   
    25    13    36 1   
    26    13    37 1   
    27    13    38 1   
    28    14    15 2   
    29    14    16 1   
    30    16    46 1   
    31    17    18 1   
    32    17    21 1   
    33    17    39 1   
    34    18    19 1   
    35    18    20 1   
    36    21    22 1   
    37    21    44 1   
    38    22    23 1   
    39    22    40 1   
    40    22    45 1   
    41    23    24 1   
    42    23    41 1   
    43    23    42 1   
    44    24    25 2   
    45    24    43 1   
@<TRIPOS>SUBSTRUCTURE
     1 2AW         1 TEMP              0 ****  ****    0 ROOT
