@<TRIPOS>MOLECULE
molecule
   46    45     1     0     0
SMALL
bcc


@<TRIPOS>ATOM
      1 OAC          0.0000     0.0000     0.0000 o          1 2AW      -0.866300
      2 CAT          1.3420     0.0000     0.0000 c          1 2AW       0.891600
      3 OAH          1.9460     0.0000     1.0460 o          1 2AW      -0.866300
      4 CAO          2.0950    -0.0020    -1.3060 c3         1 2AW      -0.180400
      5 CAM          3.5990    -0.0020    -1.0270 c3         1 2AW      -0.066400
      6 CAN          4.3640    -0.0030    -2.3510 c3         1 2AW      -0.079400
      7 CAP          5.8680    -0.0030    -2.0720 c3         1 2AW      -0.125400
      8 CAV          6.6220    -0.0050    -3.3770 c          1 2AW       0.629100
      9 OAE          6.0170    -0.0060    -4.4240 o          1 2AW      -0.561000
     10 OAS          7.9640    -0.0060    -3.3780 os         1 2AW      -0.433900
     11 CG1          8.6230    -0.0070    -4.6720 c3         1 2AW       0.138400
     12 CB          10.1400    -0.0070    -4.4710 c3         1 2AW      -0.012700
     13 CG2         10.5510    -1.2560    -3.6890 c3         1 2AW      -0.061100
     14 SAX         10.6280     1.4740    -3.5460 s4         1 2AW       0.597700
     15 OAF          9.8010     1.6100    -2.3980 o          1 2AW      -0.563200
     16 OAG         10.1560     2.6100    -4.4430 oh         1 2AW      -0.633800
     17 CA          10.8350    -0.0090    -5.8350 c3         1 2AW       0.076500
     18 C           10.3350    -1.1730    -6.6510 c          1 2AW       0.870600
     19 OXT          9.0310    -1.2720    -6.9520 o          1 2AW      -0.835300
     20 O           11.1090    -2.0170    -7.0360 o          1 2AW      -0.835300
     21 N           12.2860    -0.1300    -5.6440 n7         1 2AW      -0.834200
     22 CAL         13.0160     0.4390    -6.7860 c3         1 2AW       0.169800
     23 CAK         14.5200     0.2950    -6.5530 c3         1 2AW      -0.205400
     24 CAJ         15.2690     0.8790    -7.7230 c          1 2AW       0.576900
     25 OAB         16.1020     1.7340    -7.5410 o          1 2AW      -0.558100
     26 H2           1.8340     0.8830    -1.8750 hc         1 2AW       0.029200
     27 H3           1.8330    -0.8860    -1.8730 hc         1 2AW       0.029200
     28 H4           3.8610    -0.8860    -0.4580 hc         1 2AW       0.040700
     29 H5           3.8620     0.8830    -0.4590 hc         1 2AW       0.040700
     30 H6           4.1020    -0.8880    -2.9180 hc         1 2AW       0.044700
     31 H7           4.1020     0.8810    -2.9200 hc         1 2AW       0.044700
     32 H8           6.1300    -0.8870    -1.5030 hc         1 2AW       0.063700
     33 H9           6.1300     0.8820    -1.5050 hc         1 2AW       0.063700
     34 H10          8.3320    -0.8920    -5.2240 h1         1 2AW       0.096200
     35 H11          8.3320     0.8760    -5.2260 h1         1 2AW       0.096200
     36 H12          9.9680    -1.3200    -2.7780 hc         1 2AW       0.042033
     37 H13         11.6030    -1.1960    -3.4400 hc         1 2AW       0.042033
     38 H14         10.3730    -2.1360    -4.2940 hc         1 2AW       0.042033
     39 H17         10.6140     0.9160    -6.3540 h1         1 2AW       0.065700
     40 H19         12.7650     1.4880    -6.8890 h1         1 2AW       0.040200
     41 H20         14.7970     0.8220    -5.6480 hc         1 2AW       0.067200
     42 H21         14.7710    -0.7540    -6.4510 hc         1 2AW       0.067200
     43 H22         15.0820     0.5090    -8.7240 h4         1 2AW      -0.010800
     44 H23         12.5290    -1.0950    -5.5400 hn         1 2AW       0.374800
     45 H24         12.7390    -0.0880    -7.6910 h1         1 2AW       0.040200
     46 H15         10.4950     3.4280    -4.1190 ho         1 2AW       0.444000
@<TRIPOS>BOND
     1     9     8 2   
     2     8     7 1   
     3     8    10 1   
     4     7     6 1   
     5    10    11 1   
     6     6     5 1   
     7    11    12 1   
     8    13    12 1   
     9    15    14 2   
    10    12    14 1   
    11    12    17 1   
    12     5     4 1   
    13    14    16 1   
    14     3     2 1   
    15     2     1 1   
    16     2     4 1   
    17    17    21 1   
    18    17    18 1   
    19    21    22 1   
    20    20    18 1   
    21    18    19 1   
    22    22    23 1   
    23    23    24 1   
    24    24    25 2   
    25     4    26 1   
    26     4    27 1   
    27     5    28 1   
    28     5    29 1   
    29     6    30 1   
    30     6    31 1   
    31     7    32 1   
    32     7    33 1   
    33    11    34 1   
    34    11    35 1   
    35    13    36 1   
    36    13    37 1   
    37    13    38 1   
    38    17    39 1   
    39    22    40 1   
    40    23    41 1   
    41    23    42 1   
    42    24    43 1   
    43    21    44 1   
    44    22    45 1   
    45    16    46 1   
@<TRIPOS>SUBSTRUCTURE
     1 2AW         1 TEMP              0 ****  ****    0 ROOT
