@<TRIPOS>MOLECULE
2AX
   35    33     1     0     0
SMALL
bcc


@<TRIPOS>ATOM
      1 C4         -0.4770    3.1610   -0.6130 c         1 2AX      0.578300
      2 C5         -0.5930    1.8680   -0.0530 cg        1 2AX     -0.356200
      3 C6         -0.6790    0.7490    0.3770 c1        1 2AX      0.081500
      4 C7          2.6730   -1.2420   -3.1910 ce        1 2AX      0.459100
      5 C8          1.8910   -0.0900   -3.4970 cg        1 2AX     -0.088200
      6 C10         0.5040    2.0490   -4.1130 c         1 2AX      0.623300
      7 C13        -0.6580   -4.2670    0.1040 c3        1 2AX     -0.145500
      8 C14        -0.6160   -2.7290    0.2060 c         1 2AX      0.922600
      9 O3         -1.1240   -2.1840    1.2300 o         1 2AX     -0.857800
     10 C1         -1.4820   -4.7100   -1.0620 c2        1 2AX     -0.052400
     11 C          -0.9070   -4.4590   -2.4070 c3        1 2AX     -0.071900
     12 C12         0.7530   -4.8090    0.0290 c3        1 2AX     -0.071100
     13 C11        -0.3760    2.5790   -3.0050 c3        1 2AX     -0.236400
     14 C3          0.3680    3.1810   -1.8640 c         1 2AX      0.151400
     15 S           1.7910    3.7430   -1.8860 s         1 2AX     -0.218400
     16 C2         -2.6760   -5.2910   -0.9020 c2        1 2AX     -0.280000
     17 O1          0.4990    2.5610   -5.2390 o         1 2AX     -0.525100
     18 C9          1.2640    0.8910   -3.7820 ch        1 2AX     -0.188200
     19 O          -1.0080    4.1890   -0.1800 o         1 2AX     -0.523100
     20 N           2.4480   -2.2030   -2.3870 n2        1 2AX     -0.740100
     21 H1         -0.7460   -0.2870    0.7030 ha        1 2AX      0.258500
     22 H2          1.6020   -2.2140   -1.8420 hn        1 2AX      0.474400
     23 H3          3.6260   -1.2740   -3.7700 h4        1 2AX      0.005800
     24 H4         -1.0690    3.3610   -3.4260 hc        1 2AX      0.104200
     25 H6         -1.1380   -4.6430    1.0530 hc        1 2AX      0.050700
     26 H7         -0.5060   -3.4120   -2.4460 hc        1 2AX      0.043033
     27 H8         -0.0620   -5.1670   -2.5970 hc        1 2AX      0.043033
     28 H9         -1.6690   -4.5920   -3.2130 hc        1 2AX      0.043033
     29 H10         1.3050   -4.3300   -0.8160 hc        1 2AX      0.025367
     30 H11         1.2960   -4.5800    0.9780 hc        1 2AX      0.025367
     31 H12         0.7480   -5.9150   -0.1220 hc        1 2AX      0.025367
     32 H13        -1.0120    1.7220   -2.6370 hc        1 2AX      0.104200
     33 H14        -3.1150   -5.4710    0.0860 ha        1 2AX      0.096500
     34 H15        -3.2950   -5.6040   -1.7520 ha        1 2AX      0.096500
     35 O2         -0.0690   -2.0350   -0.7060 o         1 2AX     -0.857800
@<TRIPOS>BOND
     1    1    2 1   
     2    1   14 1   
     3    1   19 2   
     4    2    3 3   
     5    3   21 1   
     6    4    5 1   
     7    4   20 2   
     8    4   23 1   
     9    5   18 3   
    10    6   13 1   
    11    6   17 2   
    12    6   18 1   
    13    7    8 1   
    14    7   10 1   
    15    7   12 1   
    16    7   25 1   
    17    8    9 1   
    18    8   35 1   
    19   10   11 1   
    20   10   16 2   
    21   11   26 1   
    22   11   27 1   
    23   11   28 1   
    24   12   29 1   
    25   12   30 1   
    26   12   31 1   
    27   13   14 1   
    28   13   24 1   
    29   13   32 1   
    30   14   15 2   
    31   16   33 1   
    32   16   34 1   
    33   20   22 1   
@<TRIPOS>SUBSTRUCTURE
     1 2AX         1 TEMP              0 ****  ****    0 ROOT
