@<TRIPOS>MOLECULE
molecule
   35    37     1     0     0
SMALL
bcc


@<TRIPOS>ATOM
      1 C4           0.0000     0.0000     0.0000 c          1 2AX       0.575700
      2 C5           1.4740     0.0000     0.0000 ca         1 2AX      -0.259900
      3 C6           2.2030     0.0000     1.1850 ca         1 2AX       0.459200
      4 C7           4.2020    -0.0130     0.0220 ca         1 2AX       0.426200
      5 C8           3.5590    -0.0080    -1.2090 ca         1 2AX      -0.215300
      6 C10          1.4110    -0.0020    -2.4970 c          1 2AX       0.576700
      7 C13         -1.5770    -2.2700    -3.0930 c3         1 2AX      -0.159700
      8 C14         -1.4300    -3.4030    -4.0770 c          1 2AX       0.897600
      9 O3          -2.3630    -3.5940    -5.0230 o          1 2AX      -0.843300
     10 C1          -2.4630    -2.7100    -1.9340 c3         1 2AX      -0.059700
     11 C           -2.0690    -4.1410    -1.5570 c3         1 2AX      -0.089100
     12 C12         -0.1920    -1.8870    -2.5370 c3         1 2AX      -0.063400
     13 C11         -0.0600    -0.3760    -2.4360 c3         1 2AX      -0.161700
     14 C3          -0.7160     0.3170    -1.2970 c3         1 2AX      -0.051600
     15 S           -2.4710    -0.1070    -1.1240 ss         1 2AX      -0.324200
     16 C2          -2.4190    -1.8690    -0.6780 c3         1 2AX       0.035700
     17 O1           1.9410     0.2850    -3.5440 o          1 2AX      -0.504100
     18 C9           2.1690    -0.0020    -1.2300 ca         1 2AX      -0.093600
     19 O           -0.6220    -0.2520     1.0100 o          1 2AX      -0.505100
     20 N            3.5230    -0.0060     1.1510 nb         1 2AX      -0.699000
     21 H1           1.6870     0.0060     2.1380 h4         1 2AX       0.042100
     22 H2           5.2850    -0.0170     0.0540 h4         1 2AX       0.021100
     23 H3           4.1270    -0.0140    -2.1310 ha         1 2AX       0.160000
     24 H4          -2.0210    -1.4120    -3.5830 hc         1 2AX       0.061700
     25 H6          -3.4870    -2.7220    -2.2870 hc         1 2AX       0.059700
     26 H7          -0.9900    -4.2170    -1.5060 hc         1 2AX       0.037700
     27 H8          -2.4950    -4.3900    -0.5930 hc         1 2AX       0.037700
     28 H9          -2.4450    -4.8270    -2.3060 hc         1 2AX       0.037700
     29 H10         -0.0710    -2.3220    -1.5530 hc         1 2AX       0.061200
     30 H11          0.5760    -2.2680    -3.2000 hc         1 2AX       0.061200
     31 H12         -0.5160     0.0260    -3.3330 hc         1 2AX       0.096700
     32 H13         -0.6440     1.3840    -1.4690 h1         1 2AX       0.094700
     33 H14         -3.2720    -2.1070    -0.0550 h1         1 2AX       0.065200
     34 H15         -1.5030    -2.0760    -0.1380 h1         1 2AX       0.065200
     35 O2          -0.4750    -4.1380    -4.0140 o          1 2AX      -0.843300
@<TRIPOS>BOND
     1    15    16 1
     2    15    14 1
     3    19     1 2
     4    16    10 1
     5     1    14 1
     6     1     2 1
     7    10    11 1
     8    10     7 1
     9    14    13 1
    10     3     2 ar
    11     3    20 ar
    12     2    18 ar
    13     7    12 1
    14     7     8 1
    15    20     4 ar
    16    12    13 1
    17    13     6 1
    18    18     6 1
    19    18     5 ar
    20     8    35 1
    21     8     9 1
    22     6    17 2
    23     4     5 ar
    24     3    21 1
    25     4    22 1
    26     5    23 1
    27     7    24 1
    28    10    25 1
    29    11    26 1
    30    11    27 1
    31    11    28 1
    32    12    29 1
    33    12    30 1
    34    13    31 1
    35    14    32 1
    36    16    33 1
    37    16    34 1
@<TRIPOS>SUBSTRUCTURE
     1 2AX         1 TEMP              0 ****  ****    0 ROOT
