@<TRIPOS>MOLECULE
molecule
   61    64     1     0     0
SMALL
bcc


@<TRIPOS>ATOM
      1 N1           0.0000     0.0000     0.0000 nu         1 2AY      -0.768500
      2 S2           1.6560     0.0000     0.0000 s6         1 2AY       1.325900
      3 O3           2.0060     0.0000     1.3770 o          1 2AY      -0.627300
      4 O4           2.0060    -1.0870    -0.8460 o          1 2AY      -0.627300
      5 C5           2.1080     1.5790    -0.7720 c3         1 2AY      -0.242300
      6 C6          -0.6990    -0.0290    -1.2100 ca         1 2AY       0.109600
      7 C7          -0.3020    -0.9090    -2.2170 ca         1 2AY      -0.128000
      8 C8          -0.9670    -0.9590    -3.4100 ca         1 2AY      -0.115000
      9 C9          -2.0590    -0.1200    -3.6240 ca         1 2AY      -0.010800
     10 C10         -2.8250    -0.1150    -4.8700 cc         1 2AY      -0.221200
     11 C11         -3.7030     0.8970    -5.0930 cd         1 2AY       0.187900
     12 O12         -3.8630     1.9070    -4.2100 os         1 2AY      -0.298200
     13 C13         -3.6150     1.6480    -2.9040 c          1 2AY       0.753200
     14 O14         -4.3110     2.1110    -2.0200 o          1 2AY      -0.549500
     15 C15         -2.4660     0.7800    -2.6060 ca         1 2AY      -0.181600
     16 C16         -1.7830     0.8150    -1.3960 ca         1 2AY      -0.078000
     17 C17         -4.5030     0.8950    -6.3340 ca         1 2AY      -0.097800
     18 C18         -4.4570     1.9940    -7.2020 ca         1 2AY       0.152100
     19 C19         -5.2100     1.9900    -8.3670 ca         1 2AY      -0.089300
     20 C20         -6.0050     0.9050    -8.6760 ca         1 2AY      -0.091000
     21 C21         -6.0580    -0.1960    -7.8180 ca         1 2AY      -0.034800
     22 C22         -5.3020    -0.2040    -6.6480 ca         1 2AY      -0.062000
     23 C23         -6.9130    -1.3570    -8.1540 cd         1 2AY      -0.167400
     24 C24         -8.0230    -1.6930    -7.3410 c          1 2AY       0.685700
     25 O25         -8.2820    -1.0240    -6.3540 o          1 2AY      -0.640500
     26 N26         -8.7920    -2.7510    -7.6590 ns         1 2AY      -0.406100
     27 C28         -8.5210    -3.5070    -8.7540 cd         1 2AY       0.008600
     28 C29         -7.4700    -3.2220    -9.5590 cc         1 2AY      -0.247000
     29 C30         -6.6440    -2.1290    -9.2730 cc         1 2AY      -0.033000
     30 C31         -5.1580     3.1720    -9.2980 c3         1 2AY      -0.014700
     31 C32         -3.7510     3.2980    -9.8870 c3         1 2AY      -0.082767
     32 C33         -6.1690     2.9740   -10.4310 c3         1 2AY      -0.082767
     33 C34         -5.5030     4.4460    -8.5250 c3         1 2AY      -0.082767
     34 O35         -3.6760     3.0650    -6.9030 os         1 2AY      -0.340900
     35 C36         -2.2770     2.9400    -7.1640 c3         1 2AY       0.134700
     36 H1          -0.5000    -0.0050     0.8670 hn         1 2AY       0.468800
     37 H2           2.0570     1.4820    -1.8490 h1         1 2AY       0.101367
     38 H3           1.4200     2.3500    -0.4460 h1         1 2AY       0.101367
     39 H4           3.1160     1.8480    -0.4800 h1         1 2AY       0.101367
     40 H5           0.5420    -1.5670    -2.0480 ha         1 2AY       0.189000
     41 H6          -0.6490    -1.6470    -4.1840 ha         1 2AY       0.145000
     42 H7          -2.7110    -0.9160    -5.5910 ha         1 2AY       0.158000
     43 H8          -2.1960     1.3600    -0.5560 ha         1 2AY       0.157000
     44 H9          -6.5920     0.9080    -9.5860 ha         1 2AY       0.146000
     45 H10         -5.3410    -1.0560    -5.9810 ha         1 2AY       0.148000
     46 H11         -9.5750    -2.9830    -7.0810 hn         1 2AY       0.339500
     47 H12         -9.1540    -4.3540    -8.9860 h4         1 2AY       0.153000
     48 H13         -7.2720    -3.8370   -10.4280 ha         1 2AY       0.149000
     49 H14         -5.8010    -1.8950    -9.9120 ha         1 2AY       0.142000
     50 H15         -3.8200     3.5730   -10.9330 hc         1 2AY       0.039033
     51 H16         -3.2360     2.3490    -9.7970 hc         1 2AY       0.039033
     52 H17         -3.2010     4.0600    -9.3490 hc         1 2AY       0.039033
     53 H18         -6.1710     3.8490   -11.0700 hc         1 2AY       0.039033
     54 H19         -7.1570     2.8300   -10.0120 hc         1 2AY       0.039033
     55 H20         -5.8930     2.1030   -11.0120 hc         1 2AY       0.039033
     56 H21         -4.6150     4.8190    -8.0280 hc         1 2AY       0.039033
     57 H22         -5.8740     5.1970    -9.2120 hc         1 2AY       0.039033
     58 H23         -6.2640     4.2250    -7.7860 hc         1 2AY       0.039033
     59 H24         -1.9410     3.7910    -7.7440 h1         1 2AY       0.036700
     60 H25         -2.0940     2.0290    -7.7200 h1         1 2AY       0.036700
     61 H26         -1.7360     2.9060    -6.2260 h1         1 2AY       0.036700
@<TRIPOS>BOND
     1    31    30 1   
     2    28    27 2   
     3    28    29 1   
     4    27    26 1   
     5    29    23 2   
     6    26    24 1   
     7    30    32 1   
     8    30    33 1   
     9    30    19 1   
    10    23    24 1   
    11    23    21 1   
    12    20    19 ar  
    13    20    21 ar  
    14    24    25 2   
    15    19    18 ar  
    16    21    22 ar  
    17    18    34 1   
    18    18    17 ar  
    19    22    17 ar  
    20    34    35 1   
    21    17    11 1   
    22    11    12 1   
    23    11    10 2   
    24    12    13 1   
    25    10     9 1   
    26    13    14 2   
    27    13    15 1   
    28     9    15 ar  
    29     9     8 ar  
    30    15    16 ar  
    31     8     7 ar  
    32    16     6 ar  
    33     7     6 ar  
    34     6     1 1   
    35     1     2 1   
    36     4     2 2   
    37     5     2 1   
    38     2     3 2   
    39     1    36 1   
    40     5    37 1   
    41     5    38 1   
    42     5    39 1   
    43     7    40 1   
    44     8    41 1   
    45    10    42 1   
    46    16    43 1   
    47    20    44 1   
    48    22    45 1   
    49    26    46 1   
    50    27    47 1   
    51    28    48 1   
    52    29    49 1   
    53    31    50 1   
    54    31    51 1   
    55    31    52 1   
    56    32    53 1   
    57    32    54 1   
    58    32    55 1   
    59    33    56 1   
    60    33    57 1   
    61    33    58 1   
    62    35    59 1   
    63    35    60 1   
    64    35    61 1   
@<TRIPOS>SUBSTRUCTURE
     1 2AY         1 TEMP              0 ****  ****    0 ROOT
