@<TRIPOS>MOLECULE
2AZ
   68    72     1     0     0
SMALL
bcc


@<TRIPOS>ATOM
      1 C1         -0.2790   -0.1320    0.3460 cx        1 2AZ     -0.086400
      2 C9          2.2480   -0.8490    0.4710 c3        1 2AZ      0.168200
      3 C11         1.8080   -2.1920    1.0660 cc        1 2AZ      0.392900
      4 C14         0.8820   -4.5220    2.1870 cc        1 2AZ     -0.224900
      5 C15         0.2960   -5.4710    3.0360 cd        1 2AZ      0.061400
      6 C16        -0.0550   -4.7920    4.2610 cd        1 2AZ     -0.169000
      7 C21         1.3930   -4.5880    0.8200 c         1 2AZ      0.744100
      8 C27         0.1530   -3.4120   -2.2630 ca        1 2AZ     -0.125500
      9 C31        -0.3470   -1.8930   -4.0750 ca        1 2AZ     -0.102000
     10 C33         0.9050   -1.2970   -3.9220 ca        1 2AZ     -0.118500
     11 C35         1.7800   -1.7510   -2.9360 ca        1 2AZ     -0.125500
     12 C4          1.1890    0.2230    0.4350 cx        1 2AZ     -0.219700
     13 C6          0.2320    0.6090    1.5380 cx        1 2AZ     -0.086400
     14 N12         1.3500   -2.1450    2.3230 n2        1 2AZ     -0.568100
     15 N13         0.9140   -3.2690    2.8830 na        1 2AZ      0.152000
     16 C18         0.3150   -3.4510    4.1420 cc        1 2AZ     -0.074300
     17 CL2         0.0440   -7.0780    2.7250 cl        1 2AZ      0.038600
     18 N22         1.9180   -3.3570    0.2890 n         1 2AZ     -0.401300
     19 C23         2.3700   -3.3540   -1.0910 c3        1 2AZ      0.120300
     20 C26         1.4040   -2.8080   -2.0990 ca        1 2AZ     -0.146300
     21 C29        -0.7220   -2.9510   -3.2460 ca        1 2AZ     -0.118500
     22 O37         1.4120   -5.6070    0.1230 o         1 2AZ     -0.537500
     23 N38         3.5320   -0.3190    1.1160 n4        1 2AZ     -0.596200
     24 C39         3.4240   -0.0900    2.5840 c3        1 2AZ      0.107800
     25 C42         4.5250    0.8180    3.1420 c3        1 2AZ     -0.133400
     26 C45         4.3940    0.8280    4.6630 c3        1 2AZ      0.104800
     27 N48         5.4760    1.6000    5.3380 n4        1 2AZ     -0.837600
     28 C51         4.7300   -1.2070    0.7620 c         1 2AZ      0.577700
     29 O52         5.1870   -1.8540    1.7000 o         1 2AZ     -0.461100
     30 C53         5.2210   -1.1720   -0.6080 ca        1 2AZ     -0.239600
     31 C54         6.1730   -2.1570   -0.9500 ca        1 2AZ     -0.058000
     32 C56         6.7170   -2.1930   -2.2280 ca        1 2AZ     -0.136500
     33 C58         6.3320   -1.2530   -3.1940 ca        1 2AZ      0.040700
     34 C59         5.3850   -0.2700   -2.8490 ca        1 2AZ     -0.136500
     35 C61         4.8340   -0.2270   -1.5770 ca        1 2AZ     -0.058000
     36 C63         6.8990   -1.2990   -4.5580 c3        1 2AZ     -0.092800
     37 H11        -0.5880   -1.1880    0.4550 hc        1 2AZ      0.099950
     38 H12        -0.8920    0.3980   -0.4090 hc        1 2AZ      0.099950
     39 H9          2.5410   -1.0120   -0.6220 hx        1 2AZ      0.140700
     40 H16        -0.5320   -5.2540    5.1250 ha        1 2AZ      0.197000
     41 H33         1.2080   -0.4770   -4.5900 ha        1 2AZ      0.150000
     42 H35         2.7790   -1.2960   -2.8430 ha        1 2AZ      0.131500
     43 H4          1.5220    1.0580   -0.2260 hc        1 2AZ      0.091700
     44 H61A       -0.0090    1.6850    1.6400 hc        1 2AZ      0.099950
     45 H62         0.2470    0.1050    2.5200 hc        1 2AZ      0.099950
     46 H18         0.1950   -2.6250    4.8450 h4        1 2AZ      0.185000
     47 H231        3.3530   -2.7990   -1.1410 h1        1 2AZ      0.082200
     48 H232        2.5870   -4.4330   -1.3720 h1        1 2AZ      0.082200
     49 H29        -1.7030   -3.4340   -3.3770 ha        1 2AZ      0.150000
     50 H391        2.4090    0.3630    2.7870 hx        1 2AZ      0.132200
     51 H392        3.4870   -1.0950    3.1010 hx        1 2AZ      0.132200
     52 H421        4.4200    1.8580    2.7330 hc        1 2AZ      0.085200
     53 H422        5.5340    0.4200    2.8420 hc        1 2AZ      0.085200
     54 H451        3.4060    1.2860    4.9630 hx        1 2AZ      0.127700
     55 H452        4.4350   -0.2320    5.0600 hx        1 2AZ      0.127700
     56 H481        5.4680    2.5800    5.0310 hn        1 2AZ      0.473800
     57 H482        5.3350    1.5720    6.3570 hn        1 2AZ      0.473800
     58 H54         6.4830   -2.9020   -0.1960 ha        1 2AZ      0.147500
     59 H56         7.4580   -2.9690   -2.4840 ha        1 2AZ      0.175500
     60 H59         5.0810    0.4750   -3.6030 ha        1 2AZ      0.175500
     61 H61         4.1020    0.5650   -1.3600 ha        1 2AZ      0.147500
     62 H631        6.2820   -1.9830   -5.1980 hc        1 2AZ      0.081700
     63 H632        6.9020   -0.2860   -5.0320 hc        1 2AZ      0.081700
     64 H633        7.9480   -1.6910   -4.5450 hc        1 2AZ      0.081700
     65 H27        -0.1280   -4.2690   -1.6280 ha        1 2AZ      0.131500
     66 H381        3.6980    0.5960    0.6740 hn        1 2AZ      0.444800
     67 H483        6.3960    1.1960    5.1220 hn        1 2AZ      0.473800
     68 H31        -1.0340   -1.5370   -4.8590 ha        1 2AZ      0.156000
@<TRIPOS>BOND
     1    1   12 1
     2    1   13 1
     3    1   37 1
     4    1   38 1
     5    2    3 1
     6    2   12 1
     7    2   23 1
     8    2   39 1
     9    3   14 2
    10    3   18 1
    11    4    5 2
    12    4    7 1
    13    4   15 1
    14    5    6 1
    15    5   17 1
    16    6   16 2
    17    6   40 1
    18    7   18 1
    19    7   22 2
    20    8   20 ar
    21    8   21 ar
    22    8   65 1
    23    9   10 ar
    24    9   21 ar
    25    9   68 1
    26   10   11 ar
    27   10   41 1
    28   11   20 ar
    29   11   42 1
    30   12   13 1
    31   12   43 1
    32   13   44 1
    33   13   45 1
    34   14   15 1
    35   15   16 1
    36   16   46 1
    37   18   19 1
    38   19   20 1
    39   19   47 1
    40   19   48 1
    41   21   49 1
    42   23   24 1
    43   23   28 1
    44   23   66 1
    45   24   25 1
    46   24   50 1
    47   24   51 1
    48   25   26 1
    49   25   52 1
    50   25   53 1
    51   26   27 1
    52   26   54 1
    53   26   55 1
    54   27   56 1
    55   27   57 1
    56   27   67 1
    57   28   29 2
    58   28   30 1
    59   30   31 ar
    60   30   35 ar
    61   31   32 ar
    62   31   58 1
    63   32   33 ar
    64   32   59 1
    65   33   34 ar
    66   33   36 1
    67   34   35 ar
    68   34   60 1
    69   35   61 1
    70   36   62 1
    71   36   63 1
    72   36   64 1
@<TRIPOS>SUBSTRUCTURE
     1 2AZ         1 TEMP              0 ****  ****    0 ROOT
