@<TRIPOS>MOLECULE
molecule
   26    26     1     0     0
SMALL
bcc


@<TRIPOS>ATOM
      1 OAE          0.0000     0.0000     0.0000 o          1 2B0      -0.909833
      2 PAP          1.4800     0.0000     0.0000 p5         1 2B0       1.041700
      3 OAF          2.0160     0.0000     1.5170 o          1 2B0      -0.909833
      4 OAC          2.0170    -1.3140    -0.7590 o          1 2B0      -0.909833
      5 CAJ          2.0870     1.4890    -0.8590 c3         1 2B0      -0.214600
      6 CAI          1.4770     2.7350    -0.2140 c3         1 2B0      -0.025100
      7 CAN          1.9790     3.9650    -0.9240 ca         1 2B0      -0.078600
      8 CAH          3.0740     4.6530    -0.4440 ca         1 2B0       0.385200
      9 NAK          3.5230     5.7310    -1.0550 nb         1 2B0      -0.691000
     10 CAL          2.9600     6.2070    -2.1460 ca         1 2B0       0.333600
     11 CAA          3.5230     7.4440    -2.7960 c3         1 2B0      -0.122400
     12 CAM          1.8510     5.5810    -2.7040 ca         1 2B0      -0.000200
     13 OAD          1.2740     6.0750    -3.8270 oh         1 2B0      -0.528100
     14 CAO          1.3430     4.4250    -2.0850 ca         1 2B0      -0.195600
     15 C1           0.1750     3.7210    -2.6400 c          1 2B0       0.537500
     16 H3           3.1670     1.5350    -0.7830 hc         1 2B0       0.022700
     17 H4           1.8010     1.4460    -1.9030 hc         1 2B0       0.022700
     18 H5           1.7640     2.7780     0.8300 hc         1 2B0       0.077200
     19 H6           0.3970     2.6890    -0.2910 hc         1 2B0       0.077200
     20 H7           3.5730     4.3020     0.4510 h4         1 2B0       0.038100
     21 H8           3.7430     7.2370    -3.8360 hc         1 2B0       0.032700
     22 H9           2.7980     8.2470    -2.7330 hc         1 2B0       0.032700
     23 H10          4.4320     7.7380    -2.2860 hc         1 2B0       0.032700
     24 H11          0.6220     6.7140    -3.5910 ho         1 2B0       0.401000
     25 H12         -0.3050     4.0900    -3.5380 h4         1 2B0      -0.025800
     26 O2          -0.2510     2.7270    -2.0900 o          1 2B0      -0.424100
@<TRIPOS>BOND
     1     9     8 ar
     2     9    10 ar
     3     8     7 ar
     4    11    10 1
     5    10    12 ar
     6     7     6 1
     7     7    14 ar
     8     6     5 1
     9    12    14 ar
    10    12    13 1
    11    14    15 1
    12     1     2 1
    13     5     2 1
    14     2     4 1
    15     2     3 1
    16     5    16 1
    17     5    17 1
    18     6    18 1
    19     6    19 1
    20     8    20 1
    21    11    21 1
    22    11    22 1
    23    11    23 1
    24    13    24 1
    25    15    25 1
    26    26    15 2
@<TRIPOS>SUBSTRUCTURE
     1 2B0         1 TEMP              0 ****  ****    0 ROOT
