@<TRIPOS>MOLECULE
2B0
   26    25     1     0     0
SMALL
bcc


@<TRIPOS>ATOM
      1 OAE        -0.1420    0.3760   -0.5250 o         1 2B0     -0.933167
      2 PAP         1.2900    0.1100   -0.1320 p5        1 2B0      1.190100
      3 OAF         1.5540   -0.0370    1.3450 o         1 2B0     -0.933167
      4 OAC         2.0530   -0.8250   -1.0380 o         1 2B0     -0.933167
      5 CAJ         2.1380    1.6730   -0.4660 c2        1 2B0     -0.064600
      6 CAI         1.3850    2.6900   -0.9110 ce        1 2B0     -0.271200
      7 CAN         1.8290    4.0050   -1.2490 ca        1 2B0      0.029900
      8 CAH         3.1510    4.4380   -0.8800 ca        1 2B0      0.317200
      9 NAK         3.6690    5.6330   -1.1250 nb        1 2B0     -0.636000
     10 CAL         2.8990    6.5480   -1.7840 ca        1 2B0      0.203600
     11 CAA         3.4670    7.8980   -2.0640 c3        1 2B0     -0.116400
     12 CAM         1.5860    6.2280   -2.1950 ca        1 2B0      0.078800
     13 OAD         0.7920    7.1200   -2.8790 oh        1 2B0     -0.477100
     14 CAO         1.0320    4.9520   -1.9350 ca        1 2B0     -0.260600
     15 C1         -0.3210    4.6110   -2.3850 c         1 2B0      0.589500
     16 H3          3.2660   -2.9490   -2.4740 ha        1 2B0     -0.002500
     17 H4          2.9620   -2.4450   -2.1210 ha        1 2B0     -0.002500
     18 H5          3.2150    1.7060   -0.3000 ha        1 2B0      0.089000
     19 H6          0.3040    2.4430   -1.0190 ha        1 2B0      0.184000
     20 H7          3.8050    3.7270   -0.3420 h4        1 2B0      0.032100
     21 H8          4.5120    7.9980   -1.6810 hc        1 2B0      0.023367
     22 H9          3.4810    8.0880   -3.1670 hc        1 2B0      0.023367
     23 H10         2.8420    8.6880   -1.5760 hc        1 2B0      0.023367
     24 H11         1.2750    7.9530   -2.9540 ho        1 2B0      0.393000
     25 H12        -0.5810    3.5260   -2.3370 h4        1 2B0      0.043200
     26 O2         -1.1440    5.4370   -2.8040 o         1 2B0     -0.590100
@<TRIPOS>BOND
     1    1    2 1   
     2    2    3 1   
     3    2    4 1   
     4    2    5 1   
     5    5    6 2   
     6    5   18 1   
     7    6    7 1   
     8    6   19 1   
     9    7    8 ar  
    10    7   14 ar  
    11    8    9 ar  
    12    8   20 1   
    13    9   10 ar  
    14   10   11 1   
    15   10   12 ar  
    16   11   21 1   
    17   11   22 1   
    18   11   23 1   
    19   12   13 1   
    20   12   14 ar  
    21   13   24 1   
    22   14   15 1   
    23   15   25 1   
    24   15   26 2   
    25   16   17 1   
@<TRIPOS>SUBSTRUCTURE
     1 2B0         1 TEMP              0 ****  ****    0 ROOT
