@<TRIPOS>MOLECULE
molecule
   39    41     1     0     0
SMALL
bcc


@<TRIPOS>ATOM
      1 OAC          0.0000     0.0000     0.0000 o          1 2B1      -0.898833
      2 PAZ          1.4800     0.0000     0.0000 p5         1 2B1       1.161900
      3 OAD          2.0160     0.0000     1.5180 o          1 2B1      -0.898833
      4 OAE          2.0160    -1.3160    -0.7580 o          1 2B1      -0.898833
      5 OAQ          2.0170     1.3130    -0.7600 os         1 2B1      -0.573200
      6 CAL          1.6290     2.6390    -0.3920 c3         1 2B1       0.243700
      7 CAT          2.3080     3.6310    -1.2990 ca         1 2B1      -0.129600
      8 CAJ          3.1530     3.1960    -2.3040 ca         1 2B1       0.448200
      9 NAO          3.7530     4.0560    -3.1030 nb         1 2B1      -0.697000
     10 CAS          3.5760     5.3570    -2.9820 ca         1 2B1       0.358600
     11 CAA          4.2850     6.2970    -3.9220 c3         1 2B1      -0.126400
     12 CAU          2.7440     5.8700    -1.9980 ca         1 2B1      -0.030200
     13 OAB          2.5630     7.2110    -1.8780 oh         1 2B1      -0.524100
     14 CAW          2.0900     4.9900    -1.1410 ca         1 2B1      -0.117300
     15 CAK          1.1710     5.5030    -0.0620 c3         1 2B1       0.161100
     16 NAM          1.9390     5.7390     1.1620 n2         1 2B1      -0.159200
     17 NAN          1.9850     6.8750     1.6560 ne         1 2B1      -0.279300
     18 CAV          2.7020     7.0950     2.7990 cc         1 2B1       0.638200
     19 NAP          2.8140     8.2360     3.3930 nd         1 2B1      -0.581100
     20 CAX          3.5500     8.2980     4.5050 ca         1 2B1       0.128400
     21 CAH          3.8210     9.4170     5.3270 ca         1 2B1      -0.081000
     22 CAF          4.6010     9.2890     6.4330 ca         1 2B1      -0.142000
     23 CAG          5.1470     8.0600     6.7800 ca         1 2B1      -0.141000
     24 CAI          4.9020     6.9530     6.0020 ca         1 2B1      -0.077000
     25 CAY          4.1050     7.0620     4.8640 ca         1 2B1      -0.072100
     26 SAR          3.5990     5.8630     3.6770 ss         1 2B1      -0.055100
     27 H3           1.9210     2.8290     0.6330 h1         1 2B1       0.040200
     28 H4           0.5550     2.7390    -0.4870 h1         1 2B1       0.040200
     29 H5           3.3250     2.1350    -2.4370 h4         1 2B1       0.088100
     30 H6           3.5560     6.8110    -4.5370 hc         1 2B1       0.036033
     31 H7           4.8510     7.0220    -3.3500 hc         1 2B1       0.036033
     32 H8           4.9590     5.7330    -4.5560 hc         1 2B1       0.036033
     33 H9           1.8840     7.4910    -2.4690 ho         1 2B1       0.400000
     34 H10          0.7150     6.4300    -0.3870 h1         1 2B1       0.076200
     35 H11          0.3980     4.7690     0.1320 h1         1 2B1       0.076200
     36 H12          3.4040    10.3840     5.0720 ha         1 2B1       0.134000
     37 H13          4.7990    10.1560     7.0520 ha         1 2B1       0.119000
     38 H14          5.7670     7.9740     7.6650 ha         1 2B1       0.122000
     39 H15          5.3290     5.9950     6.2740 ha         1 2B1       0.138000
@<TRIPOS>BOND
     1     1     2 1   
     2     5     2 1   
     3     5     6 1   
     4     2     3 1   
     5     2     4 1   
     6     9     8 ar  
     7     9    10 ar  
     8     8     7 ar  
     9     7     6 1   
    10     7    14 ar  
    11    11    10 1   
    12    10    12 ar  
    13    12    14 ar  
    14    12    13 1   
    15    14    15 1   
    16    15    16 1   
    17    16    17 2   
    18    17    18 1   
    19    18    19 2   
    20    18    26 1   
    21    19    20 1   
    22    20    21 ar  
    23    20    25 ar  
    24    26    25 1   
    25    21    22 ar  
    26    25    24 ar  
    27    22    23 ar  
    28    24    23 ar  
    29     6    27 1   
    30     6    28 1   
    31     8    29 1   
    32    11    30 1   
    33    11    31 1   
    34    11    32 1   
    35    13    33 1   
    36    15    34 1   
    37    15    35 1   
    38    21    36 1   
    39    22    37 1   
    40    23    38 1   
    41    24    39 1   
@<TRIPOS>SUBSTRUCTURE
     1 2B1         1 TEMP              0 ****  ****    0 ROOT
