@<TRIPOS>MOLECULE
2B1
   39    42     1     0     0
SMALL
bcc


@<TRIPOS>ATOM
      1 OAC         1.2890    1.9760    2.1270 o         1 2B1     -0.870000
      2 PAZ         2.7560    2.1930    2.1510 p5        1 2B1      1.491800
      3 OAD         3.0940    3.5330    2.9400 os        1 2B1     -0.688200
      4 OAE         3.7270    1.1130    2.4360 o         1 2B1     -0.870000
      5 OAQ         3.1090    2.6910    0.5680 os        1 2B1     -0.574200
      6 CAL         2.6630    3.9810    0.3230 c3        1 2B1      0.209700
      7 CAT         2.7370    4.3510   -1.1260 ca        1 2B1     -0.117600
      8 CAJ         3.3280    3.4330   -2.0330 ca        1 2B1      0.394200
      9 NAO         3.4850    3.6450   -3.3450 nb        1 2B1     -0.677000
     10 CAS         3.0400    4.8250   -3.8480 ca        1 2B1      0.306600
     11 CAA         3.2030    5.1180   -5.3020 c3        1 2B1     -0.132400
     12 CAU         2.4350    5.7980   -3.0190 ca        1 2B1     -0.030200
     13 OAB         1.9320    6.9710   -3.5580 oh        1 2B1     -0.516100
     14 CAW         2.2730    5.5730   -1.6330 ca        1 2B1     -0.058300
     15 CAK         1.5730    6.6290   -0.8260 c3        1 2B1      0.135100
     16 NAM         2.2810    6.9570    0.4220 n2        1 2B1     -0.259200
     17 NAN         1.6680    6.8060    1.4760 ne        1 2B1     -0.256300
     18 CAV         2.3550    6.7870    2.7180 ce        1 2B1      0.560600
     19 NAP         2.6420    7.8510    3.4990 nf        1 2B1     -0.625100
     20 CAX         3.2180    7.3840    4.6760 ca        1 2B1      0.078400
     21 CAH         3.6430    8.2110    5.7440 ca        1 2B1     -0.108000
     22 CAF         4.2290    7.6480    6.8590 ca        1 2B1     -0.189000
     23 CAG         4.4160    6.2540    6.9500 ca        1 2B1     -0.191000
     24 CAI         4.0110    5.4240    5.9250 ca        1 2B1     -0.077000
     25 CAY         3.4020    5.9490    4.7740 ca        1 2B1     -0.027500
     26 SAR         2.8260    5.2310    3.3880 s4        1 2B1     -0.074300
     27 H3          3.3280    4.6880    0.9050 h1        1 2B1      0.051700
     28 H4          1.5970    4.0820    0.6830 h1        1 2B1      0.051700
     29 H5          3.6900    2.4620   -1.6320 h4        1 2B1      0.066100
     30 H6          3.5370    4.2210   -5.8760 hc        1 2B1      0.032033
     31 H7          2.2290    5.4700   -5.7240 hc        1 2B1      0.032033
     32 H8          3.9630    5.9280   -5.4410 hc        1 2B1      0.032033
     33 H9          2.5960    7.2920   -4.1840 ho        1 2B1      0.398000
     34 H10         0.5040    6.2830   -0.6900 h1        1 2B1      0.054200
     35 H11         1.5450    7.5910   -1.4160 h1        1 2B1      0.054200
     36 H12         3.5040    9.2990    5.6750 ha        1 2B1      0.102000
     37 H13         4.5580    8.2870    7.6900 ha        1 2B1      0.082000
     38 H14         4.8880    5.8360    7.8500 ha        1 2B1      0.087000
     39 H15         4.1630    4.3360    5.9930 ha        1 2B1      0.123000
@<TRIPOS>BOND
     1    1    2 1   
     2    2    3 1   
     3    2    4 1   
     4    2    5 1   
     5    3   26 1   
     6    5    6 1   
     7    6    7 1   
     8    6   27 1   
     9    6   28 1   
    10    7    8 ar  
    11    7   14 ar  
    12    8    9 ar  
    13    8   29 1   
    14    9   10 ar  
    15   10   11 1   
    16   10   12 ar  
    17   11   30 1   
    18   11   31 1   
    19   11   32 1   
    20   12   13 1   
    21   12   14 ar  
    22   13   33 1   
    23   14   15 1   
    24   15   16 1   
    25   15   34 1   
    26   15   35 1   
    27   16   17 2   
    28   17   18 1   
    29   18   19 2   
    30   18   26 1   
    31   19   20 1   
    32   20   21 ar  
    33   20   25 ar  
    34   21   22 ar  
    35   21   36 1   
    36   22   23 ar  
    37   22   37 1   
    38   23   24 ar  
    39   23   38 1   
    40   24   25 ar  
    41   24   39 1   
    42   25   26 1   
@<TRIPOS>SUBSTRUCTURE
     1 2B1         1 TEMP              0 ****  ****    0 ROOT
