@<TRIPOS>MOLECULE
2B2
   34    35     1     0     0
SMALL
bcc


@<TRIPOS>ATOM
      1 F3           0.0000     0.0000     0.0000 f          1 2B2      -0.205633
      2 C14          1.3990     0.0000     0.0000 c3         1 2B2       0.577900
      3 F1           1.8660     0.0000     1.3190 f          1 2B2      -0.205633
      4 F2           1.8650    -1.1430    -0.6590 f          1 2B2      -0.205633
      5 C13          1.9090     1.2490    -0.7220 c3         1 2B2      -0.105400
      6 C12          1.3990     2.4980    -0.0010 c3         1 2B2       0.053000
      7 N2           1.8870     3.6940    -0.6930 ns         1 2B2      -0.206900
      8 C11          1.5610     4.9190    -0.2330 c          1 2B2       0.600700
      9 O            0.8630     5.0310     0.7550 o          1 2B2      -0.641100
     10 C8           2.0530     6.1230    -0.9290 ca         1 2B2      -0.156600
     11 C7           1.7160     7.3940    -0.4530 ca         1 2B2      -0.061000
     12 C6           2.1740     8.5120    -1.1010 ca         1 2B2      -0.094500
     13 C9           2.8610     5.9950    -2.0640 ca         1 2B2      -0.061000
     14 C10          3.3180     7.1150    -2.7090 ca         1 2B2      -0.094500
     15 C5           2.9760     8.3830    -2.2360 ca         1 2B2      -0.101500
     16 C3           3.4700     9.5920    -2.9350 cc         1 2B2       0.385800
     17 N1           4.2340     9.5380    -4.0170 nc         1 2B2      -0.560000
     18 C4           3.1770    10.8450    -2.5300 cd         1 2B2      -0.113400
     19 S            3.9620    11.9680    -3.6380 ss         1 2B2      -0.299300
     20 C2           4.5990    10.6590    -4.5340 cd         1 2B2       0.437700
     21 C1           5.4650    10.7990    -5.7600 c3         1 2B2      -0.001400
     22 H1           1.5470     1.2480    -1.7430 hc         1 2B2       0.051700
     23 H2           2.9920     1.2490    -0.7230 hc         1 2B2       0.051700
     24 H3           1.7610     2.4990     1.0200 h1         1 2B2       0.041200
     25 H4           0.3160     2.4980    -0.0010 h1         1 2B2       0.041200
     26 H5           2.4530     3.6020    -1.5130 hn         1 2B2       0.181500
     27 H6           1.0930     7.4940     0.4280 ha         1 2B2       0.114500
     28 H7           1.9110     9.4960    -0.7330 ha         1 2B2       0.118500
     29 H8           3.1270     5.0110    -2.4310 ha         1 2B2       0.114500
     30 H9           3.9430     7.0150    -3.5880 ha         1 2B2       0.118500
     31 H10          2.5690    11.1140    -1.6740 h4         1 2B2       0.166000
     32 H11          4.9330    10.4160    -6.6230 hc         1 2B2       0.019033
     33 H12          5.7030    11.8440    -5.9170 hc         1 2B2       0.019033
     34 H13          6.3800    10.2370    -5.6210 hc         1 2B2       0.019033
@<TRIPOS>BOND
     1     1     2 1   
     2     2     3 1   
     3     2     4 1   
     4     2     5 1   
     5     5     6 1   
     6     5    22 1   
     7     5    23 1   
     8     6     7 1   
     9     6    24 1   
    10     6    25 1   
    11     7     8 1   
    12     7    26 1   
    13     8     9 2   
    14     8    10 1   
    15    10    11 ar  
    16    10    13 ar  
    17    11    12 ar  
    18    11    27 1   
    19    12    15 ar  
    20    12    28 1   
    21    13    14 ar  
    22    13    29 1   
    23    14    15 ar  
    24    14    30 1   
    25    15    16 1   
    26    16    17 1   
    27    16    18 2   
    28    17    20 2   
    29    18    19 1   
    30    18    31 1   
    31    19    20 1   
    32    20    21 1   
    33    21    32 1   
    34    21    33 1   
    35    21    34 1   
@<TRIPOS>SUBSTRUCTURE
     1 2B2         1 TEMP              0 ****  ****    0 ROOT
