@<TRIPOS>MOLECULE
2B3
   48    49     1     0     0
SMALL
bcc


@<TRIPOS>ATOM
      1 F3           0.0000     0.0000     0.0000 f          1 2B3      -0.205300
      2 C17          1.3980     0.0000     0.0000 c3         1 2B3       0.577900
      3 F1           1.8660     0.0000     1.3190 f          1 2B3      -0.205300
      4 F2           1.8650    -1.1420    -0.6600 f          1 2B3      -0.205300
      5 C16          1.9090     1.2500    -0.7210 c3         1 2B3      -0.105400
      6 C15          1.3980     2.4990     0.0010 c3         1 2B3       0.053000
      7 N3           1.8870     3.6950    -0.6900 ns         1 2B3      -0.205900
      8 C14          1.5610     4.9190    -0.2290 c          1 2B3       0.599700
      9 O3           0.8630     5.0300     0.7600 o          1 2B3      -0.640100
     10 C11          2.0530     6.1240    -0.9240 ca         1 2B3      -0.153600
     11 C10          1.7160     7.3940    -0.4470 ca         1 2B3      -0.060000
     12 C9           2.1740     8.5120    -1.0930 ca         1 2B3      -0.094000
     13 C12          2.8620     5.9970    -2.0580 ca         1 2B3      -0.060000
     14 C13          3.3180     7.1170    -2.7030 ca         1 2B3      -0.094000
     15 C8           2.9760     8.3850    -2.2280 ca         1 2B3      -0.103500
     16 C6           3.4700     9.5950    -2.9260 cc         1 2B3       0.377800
     17 N2           4.2340     9.5420    -4.0090 nc         1 2B3      -0.544000
     18 C7           3.1770    10.8480    -2.5200 cd         1 2B3      -0.102400
     19 S2           3.9620    11.9720    -3.6270 ss         1 2B3      -0.265300
     20 C5           4.5990    10.6640    -4.5250 cd         1 2B3       0.405700
     21 C4           5.4650    10.8040    -5.7490 c3         1 2B3       0.222500
     22 N1           4.6180    10.8500    -6.9440 n7         1 2B3      -0.601100
     23 S1           5.2470    11.3660    -8.3860 s6         1 2B3       0.956900
     24 O1           4.1520    11.3020    -9.2890 o          1 2B3      -0.580300
     25 O2           5.8660    12.6060    -8.0740 o          1 2B3      -0.580300
     26 C3           6.4950    10.1200    -8.8080 c3         1 2B3      -0.014600
     27 C2           7.1570    10.4890   -10.1380 c3         1 2B3       0.005600
     28 C1           8.2100     9.4380   -10.4930 c3         1 2B3       0.007900
     29 H1           2.9920     1.2500    -0.7200 hc         1 2B3       0.051700
     30 H2           1.5490     1.2500    -1.7420 hc         1 2B3       0.051700
     31 H3           0.3150     2.4980     0.0010 h1         1 2B3       0.041700
     32 H4           1.7590     2.4990     1.0220 h1         1 2B3       0.041700
     33 H5           2.4360     3.6040    -1.5220 hn         1 2B3       0.181500
     34 H6           1.0930     7.4950     0.4340 ha         1 2B3       0.115000
     35 H7           1.9110     9.4970    -0.7250 ha         1 2B3       0.117500
     36 H8           3.1280     5.0140    -2.4270 ha         1 2B3       0.115000
     37 H9           3.9430     7.0190    -3.5820 ha         1 2B3       0.117500
     38 H10          2.5690    11.1160    -1.6640 h4         1 2B3       0.167000
     39 H11          6.1370     9.9570    -5.8150 h1         1 2B3       0.026700
     40 H12          6.0420    11.7180    -5.6810 h1         1 2B3       0.026700
     41 H13          3.6510    10.5970    -6.8820 hn         1 2B3       0.361800
     42 H14          7.2470    10.0830    -8.0290 h1         1 2B3       0.066700
     43 H15          6.0210     9.1500    -8.8980 h1         1 2B3       0.066700
     44 H16          7.6310    11.4590   -10.0470 hc         1 2B3       0.027200
     45 H17          6.4050    10.5260   -10.9170 hc         1 2B3       0.027200
     46 H18          9.0050     9.4600    -9.7580 hc         1 2B3       0.003367
     47 H19          7.7520     8.4560   -10.5000 hc         1 2B3       0.003367
     48 H20          8.6170     9.6520   -11.4740 hc         1 2B3       0.003367
@<TRIPOS>BOND
     1     1     2 1   
     2     2     3 1   
     3     2     4 1   
     4     2     5 1   
     5     5     6 1   
     6     5    29 1   
     7     5    30 1   
     8     6     7 1   
     9     6    31 1   
    10     6    32 1   
    11     7     8 1   
    12     7    33 1   
    13     8     9 2   
    14     8    10 1   
    15    10    11 ar  
    16    10    13 ar  
    17    11    12 ar  
    18    11    34 1   
    19    12    15 ar  
    20    12    35 1   
    21    13    14 ar  
    22    13    36 1   
    23    14    15 ar  
    24    14    37 1   
    25    15    16 1   
    26    16    17 1   
    27    16    18 2   
    28    17    20 2   
    29    18    19 1   
    30    18    38 1   
    31    19    20 1   
    32    20    21 1   
    33    21    22 1   
    34    21    39 1   
    35    21    40 1   
    36    22    23 1   
    37    22    41 1   
    38    23    24 2   
    39    23    25 2   
    40    23    26 1   
    41    26    27 1   
    42    26    42 1   
    43    26    43 1   
    44    27    28 1   
    45    27    44 1   
    46    27    45 1   
    47    28    46 1   
    48    28    47 1   
    49    28    48 1   
@<TRIPOS>SUBSTRUCTURE
     1 2B3         1 TEMP              0 ****  ****    0 ROOT
