@<TRIPOS>MOLECULE
molecule
   48    49     1     0     0
SMALL
bcc


@<TRIPOS>ATOM
      1 F3           0.0000     0.0000     0.0000 f          1 2B3      -0.223633
      2 C17          1.3980     0.0000     0.0000 c3         1 2B3       0.621900
      3 F1           1.8660     0.0000     1.3190 f          1 2B3      -0.223633
      4 F2           1.8650    -1.1420    -0.6600 f          1 2B3      -0.223633
      5 C16          1.9090     1.2500    -0.7210 c3         1 2B3      -0.155400
      6 C15          1.3980     2.4990     0.0010 c3         1 2B3       0.113000
      7 N3           1.8870     3.6950    -0.6900 ns         1 2B3      -0.587900
      8 C14          1.5610     4.9190    -0.2290 c          1 2B3       0.676700
      9 O3           0.8630     5.0300     0.7600 o          1 2B3      -0.600100
     10 C11          2.0530     6.1240    -0.9240 ca         1 2B3      -0.143600
     11 C10          1.7160     7.3940    -0.4470 ca         1 2B3      -0.088500
     12 C9           2.1740     8.5120    -1.0930 ca         1 2B3      -0.117000
     13 C12          2.8620     5.9970    -2.0580 ca         1 2B3      -0.088500
     14 C13          3.3180     7.1170    -2.7030 ca         1 2B3      -0.117000
     15 C8           2.9760     8.3850    -2.2280 ca         1 2B3      -0.095500
     16 C6           3.4700     9.5950    -2.9260 cc         1 2B3       0.418800
     17 N2           4.2340     9.5420    -4.0090 nc         1 2B3      -0.671000
     18 C7           3.1770    10.8480    -2.5200 cd         1 2B3      -0.174400
     19 S2           3.9620    11.9720    -3.6270 ss         1 2B3      -0.155300
     20 C5           4.5990    10.6640    -4.5250 cd         1 2B3       0.423700
     21 C4           5.4650    10.8040    -5.7490 c3         1 2B3       0.218500
     22 N1           4.6180    10.8500    -6.9440 n7         1 2B3      -0.915100
     23 S1           5.2470    11.3660    -8.3860 s6         1 2B3       1.327900
     24 O1           4.1520    11.3020    -9.2890 o          1 2B3      -0.626300
     25 O2           5.8660    12.6060    -8.0740 o          1 2B3      -0.626300
     26 C3           6.4950    10.1200    -8.8080 c3         1 2B3      -0.226600
     27 C2           7.1570    10.4890   -10.1380 c3         1 2B3      -0.062400
     28 C1           8.2100     9.4380   -10.4930 c3         1 2B3      -0.083100
     29 H1           2.9920     1.2500    -0.7200 hc         1 2B3       0.081200
     30 H2           1.5490     1.2500    -1.7420 hc         1 2B3       0.081200
     31 H3           0.3150     2.4980     0.0010 h1         1 2B3       0.070700
     32 H4           1.7590     2.4990     1.0220 h1         1 2B3       0.070700
     33 H5           2.4360     3.6040    -1.5220 hn         1 2B3       0.315500
     34 H6           1.0930     7.4950     0.4340 ha         1 2B3       0.143000
     35 H7           1.9110     9.4970    -0.7250 ha         1 2B3       0.146000
     36 H8           3.1280     5.0140    -2.4270 ha         1 2B3       0.143000
     37 H9           3.9430     7.0190    -3.5820 ha         1 2B3       0.146000
     38 H10          2.5690    11.1160    -1.6640 h4         1 2B3       0.187000
     39 H11          6.1370     9.9570    -5.8150 h1         1 2B3       0.066200
     40 H12          6.0420    11.7180    -5.6810 h1         1 2B3       0.066200
     41 H13          3.6510    10.5970    -6.8820 hn         1 2B3       0.465800
     42 H14          7.2470    10.0830    -8.0290 h1         1 2B3       0.097700
     43 H15          6.0210     9.1500    -8.8980 h1         1 2B3       0.097700
     44 H16          7.6310    11.4590   -10.0470 hc         1 2B3       0.056200
     45 H17          6.4050    10.5260   -10.9170 hc         1 2B3       0.056200
     46 H18          9.0050     9.4600    -9.7580 hc         1 2B3       0.038700
     47 H19          7.7520     8.4560   -10.5000 hc         1 2B3       0.038700
     48 H20          8.6170     9.6520   -11.4740 hc         1 2B3       0.038700
@<TRIPOS>BOND
     1     4     2 1   
     2     9     8 2   
     3     3     2 1   
     4     2     1 1   
     5     2     5 1   
     6    13    14 ar  
     7    13    10 ar  
     8     8    10 1   
     9     8     7 1   
    10     6     5 1   
    11     6     7 1   
    12    14    15 ar  
    13    10    11 ar  
    14    25    23 2   
    15    17    20 2   
    16    17    16 1   
    17    21    20 1   
    18    21    22 1   
    19    15    16 1   
    20    15    12 ar  
    21    26    23 1   
    22    26    27 1   
    23    11    12 ar  
    24    20    19 1   
    25    16    18 2   
    26    22    23 1   
    27    23    24 2   
    28    27    28 1   
    29    18    19 1   
    30     5    29 1   
    31     5    30 1   
    32     6    31 1   
    33     6    32 1   
    34     7    33 1   
    35    11    34 1   
    36    12    35 1   
    37    13    36 1   
    38    14    37 1   
    39    18    38 1   
    40    21    39 1   
    41    21    40 1   
    42    22    41 1   
    43    26    42 1   
    44    26    43 1   
    45    27    44 1   
    46    27    45 1   
    47    28    46 1   
    48    28    47 1   
    49    28    48 1   
@<TRIPOS>SUBSTRUCTURE
     1 2B3         1 TEMP              0 ****  ****    0 ROOT
