@<TRIPOS>MOLECULE
2B4
   20    20     1     0     0
SMALL
bcc


@<TRIPOS>ATOM
      1 C1          0.0450    0.1370   -0.1060 ca        1 2B4     -0.220000
      2 C5          0.0110   -0.1150    2.3210 ca        1 2B4     -0.220000
      3 C2          1.4300    0.1040   -0.0750 ca        1 2B4     -0.078000
      4 C4          1.3960   -0.1450    2.3330 ca        1 2B4     -0.078000
      5 C6         -0.6910    0.0140    1.0950 ca        1 2B4      0.212100
      6 C3          2.1130   -0.0460    1.1380 ca        1 2B4     -0.117900
      7 C9         -4.1990   -0.6380    0.4030 c         1 2B4      0.924100
      8 C12        -2.8010    1.2620   -0.7840 c         1 2B4      0.924100
      9 C8         -2.8140   -0.0870   -0.0280 c3        1 2B4     -0.087900
     10 O10        -4.5850   -0.5490    1.6000 o         1 2B4     -0.852800
     11 O13        -3.2840    2.3090   -0.2770 o         1 2B4     -0.852800
     12 O11        -4.8600   -1.2430   -0.4940 o         1 2B4     -0.852800
     13 O14        -2.2270    1.2570   -1.9210 o         1 2B4     -0.852800
     14 O7         -2.0370    0.0030    1.1970 os        1 2B4     -0.258900
     15 BR1         3.9960   -0.1070    1.1650 br        1 2B4     -0.199100
     16 H1         -0.5000    0.3060   -1.0590 ha        1 2B4      0.177500
     17 H2          1.9900    0.2050   -1.0160 ha        1 2B4      0.111500
     18 H5         -0.5680   -0.1880    3.2520 ha        1 2B4      0.177500
     19 H4          1.9250   -0.2490    3.2920 ha        1 2B4      0.111500
     20 H8         -2.3370   -0.8640   -0.6880 h1        1 2B4      0.031700
@<TRIPOS>BOND
     1    1    3 ar  
     2    1    5 ar  
     3    1   16 1   
     4    2    4 ar  
     5    2    5 ar  
     6    2   18 1   
     7    3    6 ar  
     8    3   17 1   
     9    4    6 ar  
    10    4   19 1   
    11    5   14 1   
    12    6   15 1   
    13    7    9 1   
    14    7   10 1   
    15    7   12 1   
    16    8    9 1   
    17    8   11 1   
    18    8   13 1   
    19    9   14 1   
    20    9   20 1   
@<TRIPOS>SUBSTRUCTURE
     1 2B4         1 TEMP              0 ****  ****    0 ROOT
