@<TRIPOS>MOLECULE
molecule
   20    20     1     0     0
SMALL
bcc


@<TRIPOS>ATOM
      1 C1           0.0000     0.0000     0.0000 ca         1 2B4      -0.206000
      2 C5           0.0040    -0.0010     2.4020 ca         1 2B4      -0.206000
      3 C2           1.3810     0.0000     0.0000 ca         1 2B4      -0.078000
      4 C4           1.3850    -0.0020     2.3970 ca         1 2B4      -0.078000
      5 C6          -0.6920    -0.0010     1.2020 ca         1 2B4       0.223100
      6 C3           2.0740     0.0000     1.1970 ca         1 2B4      -0.104900
      7 C9          -4.0800    -0.7000     0.1350 c          1 2B4       0.907100
      8 C12         -2.8150     1.2390    -0.7010 c          1 2B4       0.907100
      9 C8          -2.7030    -0.1210    -0.0620 c3         1 2B4      -0.084900
     10 O10         -4.5000    -0.8960     1.2500 o          1 2B4      -0.849800
     11 O13         -2.4660     2.2230    -0.0920 o          1 2B4      -0.849800
     12 O11         -4.8420    -0.9970    -0.9310 o          1 2B4      -0.849800
     13 O14         -3.3050     1.3580    -1.9450 o          1 2B4      -0.849800
     14 O7          -2.0520    -0.0010     1.2040 os         1 2B4      -0.252900
     15 Br1          3.9650     0.0010     1.1940 br         1 2B4      -0.200100
     16 H1          -0.5420     0.0000    -0.9380 ha         1 2B4       0.157000
     17 H2           1.9220     0.0010    -0.9380 ha         1 2B4       0.112000
     18 H5          -0.5350    -0.0020     3.3420 ha         1 2B4       0.157000
     19 H4           1.9300    -0.0020     3.3340 ha         1 2B4       0.112000
     20 H8          -2.1250    -0.7750    -0.7040 h1         1 2B4       0.032700
@<TRIPOS>BOND
     1     1     3 ar
     2     1     5 ar
     3     2     4 ar
     4     2     5 ar
     5     3     6 ar
     6     4     6 ar
     7     5    14 1
     8     6    15 1
     9     7     9 1
    10     7    10 1
    11     7    12 1
    12     8     9 1
    13     8    11 1
    14     8    13 1
    15     9    14 1
    16     1    16 1
    17     3    17 1
    18     2    18 1
    19     4    19 1
    20     9    20 1
@<TRIPOS>SUBSTRUCTURE
     1 2B4         1 TEMP              0 ****  ****    0 ROOT
