@<TRIPOS>MOLECULE
2B5
   46    46     1     0     0
SMALL
bcc


@<TRIPOS>ATOM
      1 C           0.0760   -0.3330   -0.6450 c2        1 2B5      0.285000
      2 N          -2.3710    0.0440   -0.4720 n3        1 2B5     -0.225000
      3 O           1.1140   -0.6520   -0.0660 o         1 2B5     -0.301000
      4 CA         -1.0530    0.4630   -0.0150 c3        1 2B5     -0.103000
      5 CAA        -5.5870    4.2770    2.8460 c1        1 2B5     -0.013000
      6 OAC        -3.7320   -4.3200   -0.5340 o         1 2B5     -0.349000
      7 CAE         2.8920   -7.1150   -4.1190 c2        1 2B5     -0.035000
      8 CAF         1.7840   -6.4570   -3.9110 c1        1 2B5     -0.170000
      9 CAG        -3.8970    3.0280    0.6990 c2        1 2B5     -0.048000
     10 CAH         0.7150   -5.8250   -3.7010 c1        1 2B5      0.102000
     11 CAI        -0.2980   -3.1820   -5.0540 c2        1 2B5     -0.238000
     12 CAJ        -3.4320    2.2250   -0.2280 c1        1 2B5     -0.203000
     13 CAK        -5.1850    1.1410    1.3970 c1        1 2B5     -0.129000
     14 CAL        -4.2160   -1.0400    0.8450 c2        1 2B5     -0.160000
     15 CAM        -1.4070   -5.6080   -2.4920 c1        1 2B5      0.074000
     16 NAP        -1.8850   -2.9630   -0.7690 n         1 2B5     -0.357000
     17 OAR        -2.0920   -3.5480   -3.5430 os        1 2B5     -0.238000
     18 CAT        -2.7670   -3.9280   -1.2150 c2        1 2B5      0.329000
     19 CAU        -4.8390    2.3860    1.6350 c2        1 2B5     -0.051000
     20 CAV        -2.9760   -0.9880    0.3040 c2        1 2B5     -0.022000
     21 CAW        -2.4830   -4.5660   -2.5750 c3        1 2B5     -0.099000
     22 CAX        -0.4110   -5.1810   -3.4590 c2        1 2B5     -0.166000
     23 CAY        -5.2600   -0.0280    0.8220 c2        1 2B5     -0.039000
     24 CAZ        -0.8580   -3.9270   -4.0970 c2        1 2B5      0.031000
     25 CBA        -3.2140    1.1150   -0.8980 c2        1 2B5      0.006000
     26 OXT         0.0240   -0.7340   -1.9460 oh        1 2B5     -0.289000
     27 HA         -0.9400    0.3720    1.1050 h1        1 2B5      0.129000
     28 HAA        -0.8750    1.5440   -0.2890 h1        1 2B5      0.129000
     29 HAAA       -3.4180    5.3640    2.7600 ha        1 2B5      0.004500
     30 HAAB       -3.5600    5.4170    3.4220 ha        1 2B5      0.004500
     31 HAAC       -5.6940    4.8590    1.9060 ha        1 2B5      0.035000
     32 HAE         3.6470   -6.7740   -4.8450 ha        1 2B5      0.145000
     33 HAF         0.6650   -3.4590   -5.4970 ha        1 2B5      0.132500
     34 HAG        -3.5980    4.0700    0.8730 ha        1 2B5      0.162000
     35 HAH         3.1260   -8.0450   -3.5750 ha        1 2B5      0.145000
     36 HAI        -0.7690   -2.2680   -5.4310 ha        1 2B5      0.132500
     37 HAJ        -0.7940   -0.4280   -2.3650 ho        1 2B5      0.242000
     38 HAK        -6.1790   -0.3260    0.2770 ha        1 2B5      0.159000
     39 HAL        -3.6600    0.9250   -1.8950 h4        1 2B5      0.170000
     40 HAM        -3.4390   -5.0250   -2.9580 h1        1 2B5      0.178000
     41 HAN        -4.5420   -1.9950    1.3040 ha        1 2B5      0.163000
     42 HANA       -1.1110   -1.9680    0.8860 h1        1 2B5      0.121000
     43 HNAP       -2.6280   -2.9460    1.1810 h1        1 2B5      0.121000
     44 CAN        -2.1160   -2.2510    0.4540 c3        1 2B5      0.002000
     45 OAQ        -5.1810    3.0680    2.8350 os        1 2B5     -0.011000
     46 HAP2       -1.2570   -2.5580   -1.4290 hn        1 2B5      0.242000
@<TRIPOS>BOND
     1    1    3 1
     2    1    4 1
     3    1   26 1
     4    2    4 1
     5    2   20 1
     6    2   25 1
     7    4   27 1
     8    4   28 1
     9    5   31 1
    10    5   45 1
    11    6   18 1
    12    7    8 1
    13    7   32 1
    14    7   35 1
    15    8   10 1
    16    9   12 1
    17    9   19 1
    18    9   34 1
    19   10   22 1
    20   11   24 1
    21   11   33 1
    22   11   36 1
    23   12   25 1
    24   13   19 1
    25   13   23 1
    26   14   20 1
    27   14   23 1
    28   14   41 1
    29   15   21 1
    30   15   22 1
    31   16   18 1
    32   16   44 1
    33   16   46 1
    34   17   21 1
    35   17   24 1
    36   18   21 1
    37   19   45 1
    38   20   44 1
    39   21   40 1
    40   22   24 1
    41   23   38 1
    42   25   39 1
    43   26   37 1
    44   29   30 1
    45   42   44 1
    46   43   44 1
@<TRIPOS>SUBSTRUCTURE
     1 2B5         1 TEMP              0 ****  ****    0 ROOT
