@<TRIPOS>MOLECULE
molecule
   41    43     1     0     0
SMALL
bcc


@<TRIPOS>ATOM
      1 OAE          0.0000     0.0000     0.0000 o          1 2B6      -0.878500
      2 PBB          1.6100     0.0000     0.0000 p5         1 2B6       1.170900
      3 OAF          2.1040     0.0000     1.3950 o          1 2B6      -0.878500
      4 OAC          2.1470    -1.3140    -0.7590 o          1 2B6      -0.878500
      5 OAR          2.1460     1.3150    -0.7590 os         1 2B6      -0.576200
      6 CAM          3.5320     1.6590    -0.8370 c3         1 2B6       0.243700
      7 CAW          3.6880     2.9410    -1.6130 ca         1 2B6      -0.129600
      8 CAL          2.5790     3.5940    -2.1160 ca         1 2B6       0.448200
      9 NAQ          2.7040     4.7160    -2.7970 nb         1 2B6      -0.697000
     10 CAU          3.8830     5.2610    -3.0250 ca         1 2B6       0.359600
     11 CAA          3.9710     6.5450    -3.8090 c3         1 2B6      -0.126400
     12 CAV          5.0420     4.6650    -2.5510 ca         1 2B6      -0.031200
     13 OAD          6.2550     5.2310    -2.7890 oh         1 2B6      -0.525100
     14 CAY          4.9460     3.4830    -1.8250 ca         1 2B6      -0.111300
     15 CAG          6.1790     2.8050    -1.2870 c3         1 2B6       0.140100
     16 NAN          6.6920     1.8620    -2.2830 n2         1 2B6      -0.073200
     17 NAO          7.8380     2.0010    -2.7370 ne         1 2B6      -0.367400
     18 CAT          8.3110     1.1340    -3.6540 c          1 2B6       0.617200
     19 OAB          7.6140     0.2150    -4.0360 o          1 2B6      -0.461100
     20 CAX          9.6730     1.3000    -4.1940 cc         1 2B6       0.408200
     21 NAP         10.2200     0.5280    -5.0720 nd         1 2B6      -0.540100
     22 CAZ         11.4620     0.8010    -5.4670 ca         1 2B6       0.121400
     23 CAJ         12.2670     0.1120    -6.4070 ca         1 2B6      -0.070000
     24 CAH         13.5250     0.5430    -6.6840 ca         1 2B6      -0.140000
     25 CAI         14.0500     1.6660    -6.0550 ca         1 2B6      -0.136000
     26 CAK         13.2940     2.3580    -5.1380 ca         1 2B6      -0.089000
     27 CBA         11.9990     1.9340    -4.8370 ca         1 2B6      -0.070100
     28 SAS         10.7860     2.5840    -3.7380 ss         1 2B6      -0.080100
     29 H3           4.0730     0.8650    -1.3390 h1         1 2B6       0.043200
     30 H4           3.9280     1.7900     0.1620 h1         1 2B6       0.043200
     31 H5           1.5920     3.1770    -1.9490 h4         1 2B6       0.087100
     32 H6           4.6450     6.4110    -4.6470 hc         1 2B6       0.036033
     33 H7           2.9880     6.8130    -4.1760 hc         1 2B6       0.036033
     34 H8           4.3450     7.3340    -3.1680 hc         1 2B6       0.036033
     35 H9           6.4320     5.8830    -2.1310 ho         1 2B6       0.399000
     36 H10          5.9290     2.2690    -0.3780 h1         1 2B6       0.075700
     37 H11          6.9350     3.5490    -1.0710 h1         1 2B6       0.075700
     38 H12         11.8770    -0.7650    -6.9080 ha         1 2B6       0.144000
     39 H13         14.1280     0.0040    -7.4050 ha         1 2B6       0.124000
     40 H14         15.0550     1.9970    -6.2870 ha         1 2B6       0.122000
     41 H15         13.7040     3.2330    -4.6480 ha         1 2B6       0.128000
@<TRIPOS>BOND
     1     9     8 ar
     2     9    10 ar
     3     8     7 ar
     4    11    10 1
     5    10    12 ar
     6     7     6 1
     7     7    14 ar
     8     6     5 1
     9    12    14 ar
    10    12    13 1
    11    14    15 1
    12     3     2 1
    13     5     2 1
    14     2     1 1
    15     2     4 1
    16    15    16 1
    17    16    17 2
    18    17    18 1
    19    18    19 2
    20    18    20 1
    21    20    21 2
    22    20    28 1
    23    21    22 1
    24    28    27 1
    25    22    27 ar
    26    22    23 ar
    27    27    26 ar
    28    23    24 ar
    29    26    25 ar
    30    24    25 ar
    31     6    29 1
    32     6    30 1
    33     8    31 1
    34    11    32 1
    35    11    33 1
    36    11    34 1
    37    13    35 1
    38    15    36 1
    39    15    37 1
    40    23    38 1
    41    24    39 1
    42    25    40 1
    43    26    41 1
@<TRIPOS>SUBSTRUCTURE
     1 2B6         1 TEMP              0 ****  ****    0 ROOT
