@<TRIPOS>MOLECULE
2B6
   41    43     1     0     0
SMALL
bcc


@<TRIPOS>ATOM
      1 OAE        -0.6680    1.4090   -0.2780 o         1 2B6     -0.912833
      2 PBB         0.6420    2.0640    0.0320 p5        1 2B6      1.313900
      3 OAF         0.7480    3.5510   -0.2160 o         1 2B6     -0.912833
      4 OAC         1.3960    1.5610    1.2340 o         1 2B6     -0.912833
      5 OAR         1.6750    1.5210   -1.2710 os        1 2B6     -0.551200
      6 CAM         3.0000    1.4050   -0.9710 c3        1 2B6      0.239700
      7 CAW         3.8420    2.5160   -1.5560 ca        1 2B6     -0.127600
      8 CAL         3.2080    3.7810   -1.7900 ca        1 2B6      0.390200
      9 NAQ         3.8210    4.8320   -2.3230 nb        1 2B6     -0.664000
     10 CAU         5.1460    4.7180   -2.6400 ca        1 2B6      0.286600
     11 CAA         5.8480    5.8830   -3.2540 c3        1 2B6     -0.127400
     12 CAV         5.8590    3.5300   -2.3960 ca        1 2B6     -0.031200
     13 OAD         7.2220    3.4210   -2.6290 oh        1 2B6     -0.532100
     14 CAY         5.2010    2.4040   -1.8420 ca        1 2B6     -0.130300
     15 CAG         5.9850    1.1810   -1.4900 c3        1 2B6      0.148100
     16 NAN         6.6600    0.5800   -2.6500 n2        1 2B6     -0.118200
     17 NAO         7.8550    0.3370   -2.5910 ne        1 2B6     -0.313400
     18 CAT         8.5510   -0.3240   -3.6720 c         1 2B6      0.630200
     19 OAB         8.4370   -1.5250   -3.9340 o         1 2B6     -0.505100
     20 CAX         9.6200    0.5200   -4.2910 cc        1 2B6      0.304200
     21 NAP        10.0120    0.3940   -5.5540 nd        1 2B6     -0.490100
     22 CAZ        11.0330    1.3170   -5.8080 ca        1 2B6      0.076400
     23 CAJ        11.7020    1.4920   -7.0400 ca        1 2B6     -0.071000
     24 CAH        12.6980    2.4450   -7.1300 ca        1 2B6     -0.145000
     25 CAI        13.0500    3.2390   -6.0220 ca        1 2B6     -0.130000
     26 CAK        12.4060    3.0890   -4.8070 ca        1 2B6     -0.089000
     27 CBA        11.3930    2.1320   -4.6790 ca        1 2B6     -0.125100
     28 SAS        10.4340    1.7280   -3.3610 ss        1 2B6      0.103900
     29 H3          3.3840    0.4270   -1.3990 h1        1 2B6      0.023700
     30 H4          3.1620    1.4070    0.1530 h1        1 2B6      0.023700
     31 H5          2.1150    3.8680   -1.4360 h4        1 2B6      0.173100
     32 H6          6.7520    6.1450   -2.6490 hc        1 2B6      0.026033
     33 H7          5.1890    6.7830   -3.3090 hc        1 2B6      0.026033
     34 H8          6.1790    5.6280   -4.2930 hc        1 2B6      0.026033
     35 H9          7.4410    4.0560   -3.3240 ho        1 2B6      0.398000
     36 H10         6.6830    1.4510   -0.6430 h1        1 2B6      0.084700
     37 H11         5.2900    0.3640   -1.1280 h1        1 2B6      0.084700
     38 H12        11.4210    0.8740   -7.9050 ha        1 2B6      0.147000
     39 H13        13.2270    2.5940   -8.0830 ha        1 2B6      0.125000
     40 H14        13.8450    3.9910   -6.1320 ha        1 2B6      0.124000
     41 H15        12.6800    3.7160   -3.9460 ha        1 2B6      0.135000
@<TRIPOS>BOND
     1    1    2 1   
     2    2    3 1   
     3    2    4 1   
     4    2    5 1   
     5    5    6 1   
     6    6    7 1   
     7    6   29 1   
     8    6   30 1   
     9    7    8 ar  
    10    7   14 ar  
    11    8    9 ar  
    12    8   31 1   
    13    9   10 ar  
    14   10   11 1   
    15   10   12 ar  
    16   11   32 1   
    17   11   33 1   
    18   11   34 1   
    19   12   13 1   
    20   12   14 ar  
    21   13   35 1   
    22   14   15 1   
    23   15   16 1   
    24   15   36 1   
    25   15   37 1   
    26   16   17 2   
    27   17   18 1   
    28   18   19 2   
    29   18   20 1   
    30   20   21 2   
    31   20   28 1   
    32   21   22 1   
    33   22   23 ar  
    34   22   27 ar  
    35   23   24 ar  
    36   23   38 1   
    37   24   25 ar  
    38   24   39 1   
    39   25   26 ar  
    40   25   40 1   
    41   26   27 ar  
    42   26   41 1   
    43   27   28 1   
@<TRIPOS>SUBSTRUCTURE
     1 2B6         1 TEMP              0 ****  ****    0 ROOT
