@<TRIPOS>MOLECULE
molecule
   51    53     1     0     0
SMALL
bcc


@<TRIPOS>ATOM
      1 C1           0.0000     0.0000     0.0000 c3         1 2B7      -0.089600
      2 C2           1.5300     0.0000     0.0000 c3         1 2B7      -0.074700
      3 C3           2.0410     0.0000     1.4430 c3         1 2B7      -0.089600
      4 N6           2.1230    -2.3860    -2.8850 n          1 2B7      -0.283000
      5 C7           1.3430    -3.4770    -2.9430 c          1 2B7       0.699700
      6 C9           1.8000    -4.6400    -3.6070 cc         1 2B7      -0.156400
      7 C10          3.0500    -4.6460    -4.1910 cd         1 2B7      -0.099800
      8 C11          3.8640    -3.4850    -4.1220 cd         1 2B7       0.354100
      9 C12          3.3680    -2.3680    -3.4640 cc         1 2B7       0.026200
     10 C14          5.6590    -2.1520    -4.4390 cc         1 2B7       0.614300
     11 C20          9.7020    -3.3230    -6.7560 c3         1 2B7       0.166200
     12 C21         11.0210    -2.6990    -7.1270 c2         1 2B7      -0.209200
     13 C22         12.1430    -3.2850    -6.7850 c2         1 2B7      -0.191000
     14 C24          1.3270    -7.0280    -3.0330 ca         1 2B7      -0.079000
     15 C4           2.0410    -1.2500    -0.7210 c3         1 2B7      -0.097400
     16 C5           1.6350    -1.1890    -2.1950 c3         1 2B7       0.084000
     17 O8           0.2380    -3.4660    -2.4250 o          1 2B7      -0.640500
     18 S13          4.5840    -1.0940    -3.5370 ss         1 2B7      -0.261300
     19 N15          5.1000    -3.2940    -4.6310 nd         1 2B7      -0.637000
     20 N16          6.9230    -1.8010    -4.8890 ns         1 2B7      -0.543400
     21 C17          7.6660    -2.6930    -5.5750 c          1 2B7       0.771100
     22 O18          7.2270    -3.8060    -5.7980 o          1 2B7      -0.586100
     23 N19          8.8940    -2.3530    -6.0110 ns         1 2B7      -0.598900
     24 C23          0.9420    -5.8460    -3.6720 ca         1 2B7      -0.153100
     25 C25          0.4890    -8.1270    -3.1240 ca         1 2B7      -0.258300
     26 C26         -0.6920    -8.0200    -3.8340 ca         1 2B7       0.422200
     27 N27         -1.0320    -6.8890    -4.4220 nb         1 2B7      -0.691000
     28 C28         -0.2640    -5.8210    -4.3720 ca         1 2B7       0.453200
     29 H1          -0.3610    -1.0060     0.1790 hc         1 2B7       0.037533
     30 H2          -0.3610     0.6580     0.7810 hc         1 2B7       0.037533
     31 H3          -0.3610     0.3480    -0.9600 hc         1 2B7       0.037533
     32 H4           1.8920     0.8840    -0.5110 hc         1 2B7       0.044700
     33 H5           3.1230    -0.0410     1.4430 hc         1 2B7       0.037533
     34 H6           1.7140     0.9040     1.9420 hc         1 2B7       0.037533
     35 H7           1.6470    -0.8630     1.9660 hc         1 2B7       0.037533
     36 H8           3.4080    -5.5310    -4.7010 ha         1 2B7       0.164000
     37 H9           9.8760    -4.1970    -6.1400 h1         1 2B7       0.061700
     38 H10          9.1750    -3.6150    -7.6560 h1         1 2B7       0.061700
     39 H11         11.0440    -1.7650    -7.6760 ha         1 2B7       0.127000
     40 H12         13.0920    -2.8360    -7.0520 ha         1 2B7       0.118500
     41 H13         12.1200    -4.2180    -6.2360 ha         1 2B7       0.118500
     42 H14          2.2590    -7.0840    -2.4840 ha         1 2B7       0.140000
     43 H15          1.6090    -2.1320    -0.2630 hc         1 2B7       0.057200
     44 H16          3.1200    -1.2950    -0.6440 hc         1 2B7       0.057200
     45 H17          2.0670    -0.3070    -2.6520 h1         1 2B7       0.073700
     46 H18          0.5560    -1.1430    -2.2710 h1         1 2B7       0.073700
     47 H19          7.2850    -0.8870    -4.7020 hn         1 2B7       0.329500
     48 H20          9.2520    -1.4360    -5.8330 hn         1 2B7       0.307500
     49 H21          0.7570    -9.0600    -2.6440 ha         1 2B7       0.137000
     50 H22         -1.3520    -8.8760    -3.9030 h4         1 2B7       0.021100
     51 H23         -0.5780    -4.9110    -4.8680 h4         1 2B7       0.031100
@<TRIPOS>BOND
     1    12    11 1   
     2    12    13 2   
     3    11    23 1   
     4    23    21 1   
     5    21    22 2   
     6    21    20 1   
     7    20    10 1   
     8    10    18 1   
     9    10    19 2   
    10    18     9 1   
    11    19     8 1   
    12     3     2 1   
    13     2    15 1   
    14     2     1 1   
    15    15    16 1   
    16     8     9 2   
    17     8     7 1   
    18     9     4 1   
    19     7     6 2   
    20     4    16 1   
    21     4     5 1   
    22     6     5 1   
    23     6    24 1   
    24     5    17 2   
    25    24    14 ar  
    26    24    28 ar  
    27    14    25 ar  
    28    28    27 ar  
    29    25    26 ar  
    30    27    26 ar  
    31     1    29 1   
    32     1    30 1   
    33     1    31 1   
    34     2    32 1   
    35     3    33 1   
    36     3    34 1   
    37     3    35 1   
    38     7    36 1   
    39    11    37 1   
    40    11    38 1   
    41    12    39 1   
    42    13    40 1   
    43    13    41 1   
    44    14    42 1   
    45    15    43 1   
    46    15    44 1   
    47    16    45 1   
    48    16    46 1   
    49    20    47 1   
    50    23    48 1   
    51    25    49 1   
    52    26    50 1   
    53    28    51 1   
@<TRIPOS>SUBSTRUCTURE
     1 2B7         1 TEMP              0 ****  ****    0 ROOT
