@<TRIPOS>MOLECULE
2B7
   51    53     1     0     0
SMALL
bcc


@<TRIPOS>ATOM
      1 C1           0.0000     0.0000     0.0000 c3         1 2B7       0.002400
      2 C2           1.5300     0.0000     0.0000 c3         1 2B7      -0.047700
      3 C3           2.0410     0.0000     1.4430 c3         1 2B7       0.002400
      4 N6           2.1230    -2.3860    -2.8850 n          1 2B7       0.176000
      5 C7           1.3430    -3.4770    -2.9430 c          1 2B7       0.596700
      6 C9           1.8000    -4.6400    -3.6070 cc         1 2B7      -0.148400
      7 C10          3.0500    -4.6460    -4.1910 cd         1 2B7      -0.081800
      8 C11          3.8640    -3.4850    -4.1220 cd         1 2B7       0.314100
      9 C12          3.3680    -2.3680    -3.4640 cc         1 2B7      -0.110800
     10 C14          5.6590    -2.1520    -4.4390 cc         1 2B7       0.437300
     11 C20          9.7020    -3.3230    -6.7560 c3         1 2B7       0.111200
     12 C21         11.0210    -2.6990    -7.1270 c2         1 2B7      -0.193200
     13 C22         12.1430    -3.2850    -6.7850 c2         1 2B7      -0.128000
     14 C24          1.3270    -7.0280    -3.0330 ca         1 2B7      -0.059000
     15 C4           2.0410    -1.2500    -0.7210 c3         1 2B7      -0.046400
     16 C5           1.6350    -1.1890    -2.1950 c3         1 2B7      -0.013000
     17 O8           0.2380    -3.4660    -2.4250 o          1 2B7      -0.688500
     18 S13          4.5840    -1.0940    -3.5370 ss         1 2B7      -0.342300
     19 N15          5.1000    -3.2940    -4.6310 nd         1 2B7      -0.494000
     20 N16          6.9230    -1.8010    -4.8890 ns         1 2B7      -0.088400
     21 C17          7.6660    -2.6930    -5.5750 c          1 2B7       0.546100
     22 O18          7.2270    -3.8060    -5.7980 o          1 2B7      -0.635100
     23 N19          8.8940    -2.3530    -6.0110 ns         1 2B7      -0.212900
     24 C23          0.9420    -5.8460    -3.6720 ca         1 2B7      -0.139100
     25 C25          0.4890    -8.1270    -3.1240 ca         1 2B7      -0.224300
     26 C26         -0.6920    -8.0200    -3.8340 ca         1 2B7       0.404200
     27 N27         -1.0320    -6.8890    -4.4220 nb         1 2B7      -0.584000
     28 C28         -0.2640    -5.8210    -4.3720 ca         1 2B7       0.435200
     29 H1          -0.3610     0.3480    -0.9600 hc         1 2B7       0.006533
     30 H2          -0.3610     0.6580     0.7810 hc         1 2B7       0.006533
     31 H3          -0.3610    -1.0050     0.1790 hc         1 2B7       0.006533
     32 H4           1.8920     0.8840    -0.5110 hc         1 2B7       0.022700
     33 H5           1.6460    -0.8630     1.9660 hc         1 2B7       0.006533
     34 H6           3.1230    -0.0420     1.4430 hc         1 2B7       0.006533
     35 H7           1.7140     0.9050     1.9420 hc         1 2B7       0.006533
     36 H8           3.4080    -5.5310    -4.7010 ha         1 2B7       0.128000
     37 H9           9.1750    -3.6150    -7.6560 h1         1 2B7       0.030700
     38 H10          9.8760    -4.1970    -6.1400 h1         1 2B7       0.030700
     39 H11         11.0440    -1.7650    -7.6760 ha         1 2B7       0.105000
     40 H12         12.1200    -4.2180    -6.2360 ha         1 2B7       0.087000
     41 H13         13.0920    -2.8360    -7.0520 ha         1 2B7       0.087000
     42 H14          2.2590    -7.0840    -2.4840 ha         1 2B7       0.110000
     43 H15          3.1200    -1.2950    -0.6440 hc         1 2B7       0.030700
     44 H16          1.6090    -2.1320    -0.2630 hc         1 2B7       0.030700
     45 H17          0.5560    -1.1430    -2.2710 h1         1 2B7       0.053200
     46 H18          2.0670    -0.3070    -2.6520 h1         1 2B7       0.053200
     47 H19          7.2850    -0.8870    -4.7020 hn         1 2B7       0.165500
     48 H20          9.2520    -1.4360    -5.8330 hn         1 2B7       0.166500
     49 H21          0.7570    -9.0600    -2.6440 ha         1 2B7       0.111000
     50 H22         -1.3520    -8.8760    -3.9030 h4         1 2B7      -0.022900
     51 H23         -0.5780    -4.9110    -4.8680 h4         1 2B7      -0.014900
@<TRIPOS>BOND
     1     1     2 1   
     2     1    29 1   
     3     1    30 1   
     4     1    31 1   
     5     2     3 1   
     6     2    15 1   
     7     2    32 1   
     8     3    33 1   
     9     3    34 1   
    10     3    35 1   
    11     4     5 1   
    12     4     9 1   
    13     4    16 1   
    14     5     6 1   
    15     5    17 2   
    16     6     7 2   
    17     6    24 1   
    18     7     8 1   
    19     7    36 1   
    20     8     9 2   
    21     8    19 1   
    22     9    18 1   
    23    10    18 1   
    24    10    19 2   
    25    10    20 1   
    26    11    12 1   
    27    11    23 1   
    28    11    37 1   
    29    11    38 1   
    30    12    13 2   
    31    12    39 1   
    32    13    40 1   
    33    13    41 1   
    34    14    24 ar  
    35    14    25 ar  
    36    14    42 1   
    37    15    16 1   
    38    15    43 1   
    39    15    44 1   
    40    16    45 1   
    41    16    46 1   
    42    20    21 1   
    43    20    47 1   
    44    21    22 2   
    45    21    23 1   
    46    23    48 1   
    47    24    28 ar  
    48    25    26 ar  
    49    25    49 1   
    50    26    27 ar  
    51    26    50 1   
    52    27    28 ar  
    53    28    51 1   
@<TRIPOS>SUBSTRUCTURE
     1 2B7         1 TEMP              0 ****  ****    0 ROOT
