@<TRIPOS>MOLECULE
molecule
   42    43     1     0     0
SMALL
bcc


@<TRIPOS>ATOM
      1 C1           0.0000     0.0000     0.0000 c3         1 2B8      -0.093100
      2 C2           1.5300     0.0000     0.0000 c3         1 2B8      -0.105400
      3 C3           2.0400     0.0000     1.4430 c3         1 2B8       0.044300
      4 N6           5.5550    -0.6870     1.5030 nc         1 2B8      -0.700000
      5 C7           5.5880     0.6430     1.3850 cc         1 2B8       0.313600
      6 C8           6.7980     1.5400     1.3030 c3         1 2B8      -0.067700
      7 C9           6.3560     2.9050     0.7640 c3         1 2B8      -0.165000
      8 C10          5.9730     2.7700    -0.7120 c3         1 2B8      -0.041400
      9 C11          7.1820     2.2750    -1.5090 c3         1 2B8      -0.133400
     10 C12          6.8000     2.1400    -2.9840 c3         1 2B8       0.080800
     11 C14          5.1460     3.4020     1.5610 c3         1 2B8      -0.046400
     12 C15          3.9230     2.5400     1.2230 c3         1 2B8      -0.014100
     13 C16          4.3140     1.0900     1.3480 cd         1 2B8      -0.237900
     14 N4           3.5040     0.0000     1.4430 na         1 2B8      -0.182900
     15 C5           4.3100    -1.0830     1.5390 cd         1 2B8       0.372400
     16 N13          7.9600     1.6650    -3.7490 nz         1 2B8      -0.806600
     17 H1          -0.3450     0.9640     0.3530 hc         1 2B8       0.037700
     18 H2          -0.3640    -0.7800     0.6570 hc         1 2B8       0.037700
     19 H3          -0.3640    -0.1710    -1.0060 hc         1 2B8       0.037700
     20 H4           1.8910    -0.8850    -0.5110 hc         1 2B8       0.049200
     21 H5           1.8910     0.8850    -0.5110 hc         1 2B8       0.049200
     22 H6           1.6790    -0.8850     1.9540 h1         1 2B8       0.062200
     23 H7           1.6790     0.8840     1.9540 h1         1 2B8       0.062200
     24 H8           7.2280     1.6610     2.2900 hc         1 2B8       0.063700
     25 H9           7.5290     1.1030     0.6330 hc         1 2B8       0.063700
     26 H10          5.1610     2.0600    -0.8120 hc         1 2B8       0.034700
     27 H11          5.6600     3.7340    -1.0940 hc         1 2B8       0.034700
     28 H12          7.9950     2.9840    -1.4100 hc         1 2B8       0.107700
     29 H13          7.4960     1.3100    -1.1280 hc         1 2B8       0.107700
     30 H14          6.4870     3.1040    -3.3660 hx         1 2B8       0.092200
     31 H15          5.9870     1.4310    -3.0830 hx         1 2B8       0.092200
     32 H16          4.9360     4.4200     1.2560 hc         1 2B8       0.067700
     33 H17          5.3630     3.2800     2.6150 hc         1 2B8       0.067700
     34 H18          3.1480     2.7480     1.9510 hc         1 2B8       0.041700
     35 H19          3.6450     2.7310     0.1930 hc         1 2B8       0.041700
     36 H20          3.9780    -2.1100     1.6320 h5         1 2B8       0.056100
     37 H21          8.2370     0.7640    -3.4100 hn         1 2B8       0.447133
     38 H22          7.7160     1.5960    -4.7170 hn         1 2B8       0.447133
     39 H133         8.7180     2.3090    -3.6400 hn         1 2B8       0.447133
     40 C17          7.4860     3.8910     0.9010 c          1 2B8       0.898600
     41 O18          8.6550     3.6610     0.2820 o          1 2B8      -0.830800
     42 O19          7.3420     4.8870     1.5670 o          1 2B8      -0.830800
@<TRIPOS>BOND
     1     1     2 1
     2     2     3 1
     3     3    14 1
     4    14    15 1
     5    14    13 1
     6    15     4 2
     7    12    13 1
     8    12    11 1
     9    13     5 2
    10    41    40 1
    11     4     5 1
    12     5     6 1
    13    40    42 1
    14    40     7 1
    15    11     7 1
    16     7     6 1
    17     7     8 1
    18     9     8 1
    19     9    10 1
    20    10    16 1
    21     1    17 1
    22     1    18 1
    23     1    19 1
    24     2    20 1
    25     2    21 1
    26     3    22 1
    27     3    23 1
    28     6    24 1
    29     6    25 1
    30     8    26 1
    31     8    27 1
    32     9    28 1
    33     9    29 1
    34    10    30 1
    35    10    31 1
    36    11    32 1
    37    11    33 1
    38    12    34 1
    39    12    35 1
    40    15    36 1
    41    16    37 1
    42    16    38 1
    43    39    16 1
@<TRIPOS>SUBSTRUCTURE
     1 2B8         1 TEMP              0 ****  ****    0 ROOT
