@<TRIPOS>MOLECULE
2B9
   38    39     1     0     0
SMALL
bcc


@<TRIPOS>ATOM
      1 OAE          0.0000     0.0000     0.0000 o          1 2B9      -0.723833
      2 PAY          1.4800     0.0000     0.0000 p5         1 2B9       0.672900
      3 OAF          2.0160     0.0000     1.5180 o          1 2B9      -0.723833
      4 OAC          2.0150    -1.3150    -0.7580 o          1 2B9      -0.723833
      5 OAR          2.0170     1.3140    -0.7590 os         1 2B9      -0.487200
      6 CAM          1.6280     2.6390    -0.3910 c3         1 2B9       0.318600
      7 CAW          2.3070     3.6320    -1.2990 cc         1 2B9      -0.067200
      8 CAL          3.1390     3.2060    -2.2790 cd         1 2B9      -0.140000
      9 NAP          3.7530     4.0840    -3.0960 na         1 2B9       0.071200
     10 CAT          3.5640     5.4200    -2.9710 cd         1 2B9      -0.228200
     11 CAA          4.2710     6.3640    -3.9070 c3         1 2B9       0.084100
     12 CAV          2.7400     5.9150    -2.0080 cc         1 2B9       0.091100
     13 OAD          2.5520     7.2560    -1.8850 oh         1 2B9      -0.448100
     14 CAX          2.0780     5.0150    -1.1390 cc         1 2B9       0.073000
     15 CAG          1.2140     5.4940    -0.1230 cf         1 2B9      -0.172400
     16 NAN          1.0190     6.7850     0.0200 nf         1 2B9      -0.004600
     17 NAQ          0.2310     7.2200     0.9430 ne         1 2B9      -0.539400
     18 CAS          0.0340     8.5300     1.0880 c          1 2B9       0.727100
     19 OAB          0.5970     9.3180     0.3450 o          1 2B9      -0.699100
     20 CAU         -0.8720     9.0310     2.1500 ca         1 2B9      -0.068600
     21 CAJ         -1.0930    10.4020     2.3180 ca         1 2B9      -0.179300
     22 CAH         -1.9440    10.8240     3.3200 ca         1 2B9       0.362200
     23 NAO         -2.5430     9.9550     4.1110 nb         1 2B9      -0.611000
     24 CAI         -2.3630     8.6550     3.9850 ca         1 2B9       0.362200
     25 CAK         -1.5320     8.1460     3.0070 ca         1 2B9      -0.179300
     26 H3           1.9190     2.8290     0.6350 h1         1 2B9       0.012200
     27 H4           0.5530     2.7400    -0.4860 h1         1 2B9       0.012200
     28 H5           3.3140     2.1440    -2.4080 h4         1 2B9       0.199000
     29 H6           3.5550     7.0600    -4.3280 hc         1 2B9       0.005700
     30 H7           5.0300     6.9130    -3.3620 hc         1 2B9       0.005700
     31 H8           4.7370     5.8000    -4.7060 hc         1 2B9       0.005700
     32 H9           3.3040     7.6430    -1.4680 ho         1 2B9       0.392000
     33 H10          0.7200     4.7960     0.5410 h4         1 2B9       0.145000
     34 H14         -0.6040    11.1210     1.6730 ha         1 2B9       0.136000
     35 H15         -2.1220    11.8840     3.4590 h4         1 2B9      -0.033400
     36 H16         -2.8770     7.9770     4.6560 h4         1 2B9      -0.033400
     37 H17         -1.3880     7.0770     2.9100 ha         1 2B9       0.136000
     38 H18          4.3630     3.7410    -3.8120 hn         1 2B9       0.251800
@<TRIPOS>BOND
     1     1     2 1   
     2     2     3 1   
     3     2     4 1   
     4     2     5 1   
     5     5     6 1   
     6     6     7 1   
     7     6    26 1   
     8     6    27 1   
     9     7     8 2   
    10     7    14 1   
    11     8     9 1   
    12     8    28 1   
    13     9    10 1   
    14     9    38 1   
    15    10    11 1   
    16    10    12 2   
    17    11    29 1   
    18    11    30 1   
    19    11    31 1   
    20    12    13 1   
    21    12    14 1   
    22    13    32 1   
    23    14    15 2   
    24    15    16 1   
    25    15    33 1   
    26    16    17 2   
    27    17    18 1   
    28    18    19 2   
    29    18    20 1   
    30    20    21 ar  
    31    20    25 ar  
    32    21    22 ar  
    33    21    34 1   
    34    22    23 ar  
    35    22    35 1   
    36    23    24 ar  
    37    24    25 ar  
    38    24    36 1   
    39    25    37 1   
@<TRIPOS>SUBSTRUCTURE
     1 2B9         1 TEMP              0 ****  ****    0 ROOT
