@<TRIPOS>MOLECULE
molecule
   38    39     1     0     0
SMALL
bcc


@<TRIPOS>ATOM
      1 OAE          0.0000     0.0000     0.0000 o          1 2B9      -0.894833
      2 PAY          1.4800     0.0000     0.0000 p5         1 2B9       1.154900
      3 OAF          2.0160     0.0000     1.5180 o          1 2B9      -0.894833
      4 OAC          2.0150    -1.3150    -0.7580 o          1 2B9      -0.894833
      5 OAR          2.0170     1.3140    -0.7590 os         1 2B9      -0.587200
      6 CAM          1.6280     2.6390    -0.3910 c3         1 2B9       0.252600
      7 CAW          2.3070     3.6320    -1.2990 cc         1 2B9      -0.107200
      8 CAL          3.1390     3.2060    -2.2790 cd         1 2B9       0.076000
      9 NAP          3.7530     4.0840    -3.0960 na         1 2B9      -0.515800
     10 CAT          3.5640     5.4200    -2.9710 cd         1 2B9       0.025800
     11 CAA          4.2710     6.3640    -3.9070 c3         1 2B9      -0.050900
     12 CAV          2.7400     5.9150    -2.0080 cc         1 2B9       0.046100
     13 OAD          2.5520     7.2560    -1.8850 oh         1 2B9      -0.465100
     14 CAX          2.0780     5.0150    -1.1390 cc         1 2B9       0.111000
     15 CAG          1.2140     5.4940    -0.1230 cf         1 2B9      -0.115400
     16 NAN          1.0190     6.7850     0.0200 nf         1 2B9      -0.106600
     17 NAQ          0.2310     7.2200     0.9430 ne         1 2B9      -0.503400
     18 CAS          0.0340     8.5300     1.0880 c          1 2B9       0.695100
     19 OAB          0.5970     9.3180     0.3450 o          1 2B9      -0.644100
     20 CAU         -0.8720     9.0310     2.1500 ca         1 2B9      -0.064600
     21 CAJ         -1.0930    10.4020     2.3180 ca         1 2B9      -0.208300
     22 CAH         -1.9440    10.8240     3.3200 ca         1 2B9       0.383200
     23 NAO         -2.5430     9.9550     4.1110 nb         1 2B9      -0.710000
     24 CAI         -2.3630     8.6550     3.9850 ca         1 2B9       0.383200
     25 CAK         -1.5320     8.1460     3.0070 ca         1 2B9      -0.208300
     26 H3           0.5530     2.7400    -0.4860 h1         1 2B9       0.055200
     27 H4           1.9190     2.8290     0.6350 h1         1 2B9       0.055200
     28 H5           3.3140     2.1440    -2.4080 h4         1 2B9       0.234000
     29 H6           4.7380     5.8000    -4.7060 hc         1 2B9       0.049700
     30 H7           3.5550     7.0600    -4.3280 hc         1 2B9       0.049700
     31 H8           5.0290     6.9130    -3.3620 hc         1 2B9       0.049700
     32 H9           3.3040     7.6430    -1.4680 ho         1 2B9       0.410000
     33 H10          0.7200     4.7960     0.5410 h4         1 2B9       0.152000
     34 H14         -0.6040    11.1210     1.6730 ha         1 2B9       0.162500
     35 H15         -2.1220    11.8840     3.4590 h4         1 2B9       0.008600
     36 H16         -2.8770     7.9770     4.6560 h4         1 2B9       0.008600
     37 H17         -1.3880     7.0770     2.9100 ha         1 2B9       0.162500
     38 H18          4.3630     3.7410    -3.8120 hn         1 2B9       0.444800
@<TRIPOS>BOND
     1    23    24 ar  
     2    23    22 ar  
     3    24    25 ar  
     4    22    21 ar  
     5    25    20 ar  
     6    21    20 ar  
     7    20    18 1   
     8    18    17 1   
     9    18    19 2   
    10    17    16 2   
    11    16    15 1   
    12    15    14 2   
    13    13    12 1   
    14    14    12 1   
    15    14     7 1   
    16    12    10 2   
    17     6     7 1   
    18     6     5 1   
    19     7     8 2   
    20    10    11 1   
    21    10     9 1   
    22     1     2 1   
    23     8     9 1   
    24     4     2 1   
    25     5     2 1   
    26     2     3 1   
    27     6    26 1   
    28     6    27 1   
    29     8    28 1   
    30    11    29 1   
    31    11    30 1   
    32    11    31 1   
    33    13    32 1   
    34    15    33 1   
    35    21    34 1   
    36    22    35 1   
    37    24    36 1   
    38    25    37 1   
    39     9    38 1   
@<TRIPOS>SUBSTRUCTURE
     1 2B9         1 TEMP              0 ****  ****    0 ROOT
