@<TRIPOS>MOLECULE
molecule
   55    54     1     0     0
SMALL
bcc


@<TRIPOS>ATOM
      1 C1           0.0000     0.0000     0.0000 c3         1 2BB      -0.093100
      2 N1           2.6560    -3.3740     1.1330 ns         1 2BB      -0.478400
      3 O1           5.6490    -1.4680     0.2970 oh         1 2BB      -0.554800
      4 C2           1.5300     0.0000     0.0000 c3         1 2BB      -0.091700
      5 N2           3.4840     0.8580    -2.3010 ns         1 2BB      -0.569900
      6 C3           2.0410     0.0000     1.4420 c3         1 2BB      -0.093100
      7 N3           2.2400     4.1870    -2.8610 n          1 2BB      -0.492800
      8 O3           2.3130    -4.7340     1.3280 oh         1 2BB      -0.362100
      9 C4           2.0400    -1.2500    -0.7210 c3         1 2BB      -0.096400
     10 C5           3.5590    -1.1640    -0.8780 c3         1 2BB      -0.132700
     11 O5           1.9210     2.3160    -4.0080 o          1 2BB      -0.613100
     12 C6           4.2330    -1.6060     0.4230 c3         1 2BB       0.093100
     13 C7           3.8900    -3.0470     0.7010 c          1 2BB       0.621100
     14 C8           3.9530     0.2580    -1.1900 c          1 2BB       0.674100
     15 C9           3.7740     2.2730    -2.5470 c3         1 2BB       0.049700
     16 C10          2.5790     2.9260    -3.1910 c          1 2BB       0.654100
     17 C11          1.0130     4.7820    -3.3980 c3         1 2BB       0.093300
     18 C12          3.0990     4.9660    -1.9650 c3         1 2BB       0.093300
     19 C13          4.9830     2.3920    -3.4770 c3         1 2BB      -0.075000
     20 C14          4.7300     1.5800    -4.7490 c3         1 2BB      -0.086767
     21 C15          5.2010     3.8610    -3.8450 c3         1 2BB      -0.086767
     22 C16          6.2270     1.8530    -2.7680 c3         1 2BB      -0.086767
     23 H1          -0.3610    -0.7930     0.6440 hc         1 2BB       0.037867
     24 H1A         -0.3610    -0.1610    -1.0080 hc         1 2BB       0.037867
     25 H1B         -0.3610     0.9540     0.3640 hc         1 2BB       0.037867
     26 HN1          2.0060    -2.6540     1.3800 hn         1 2BB       0.333500
     27 HO1          6.0550    -1.6140     1.1350 ho         1 2BB       0.413000
     28 H2           1.8910     0.8840    -0.5110 hc         1 2BB       0.066700
     29 HN2          2.9000     0.3490    -2.9360 hn         1 2BB       0.335500
     30 H3           2.1770    -1.0210     1.7770 hc         1 2BB       0.037867
     31 H3A          2.9870     0.5250     1.4910 hc         1 2BB       0.037867
     32 H3B          1.3200     0.4960     2.0810 hc         1 2BB       0.037867
     33 HO3          2.0100    -4.8580     2.2130 ho         1 2BB       0.392000
     34 H4           1.7860    -2.1300    -0.1430 hc         1 2BB       0.063700
     35 H4A          1.5790    -1.3160    -1.7000 hc         1 2BB       0.063700
     36 H5           3.8760    -1.8110    -1.6860 hc         1 2BB       0.094700
     37 H6           3.8820    -0.9870     1.2400 h1         1 2BB       0.067700
     38 H9           3.9920     2.7660    -1.6070 h1         1 2BB       0.091700
     39 H11          1.0710     4.8150    -4.4800 h1         1 2BB       0.044700
     40 H11A         0.9010     5.7880    -3.0130 h1         1 2BB       0.044700
     41 H11B         0.1610     4.1840    -3.1000 h1         1 2BB       0.044700
     42 H12          3.7700     4.2990    -1.4380 h1         1 2BB       0.044700
     43 H12A         3.6760     5.6760    -2.5450 h1         1 2BB       0.044700
     44 H12B         2.4850     5.4990    -1.2490 h1         1 2BB       0.044700
     45 H14          3.8910     2.0030    -5.2880 hc         1 2BB       0.041811
     46 H14A         4.5080     0.5530    -4.4840 hc         1 2BB       0.041811
     47 H14B         5.6130     1.6070    -5.3770 hc         1 2BB       0.041811
     48 H15          4.3310     4.2340    -4.3710 hc         1 2BB       0.041811
     49 H15A         6.0730     3.9480    -4.4830 hc         1 2BB       0.041811
     50 H15B         5.3540     4.4400    -2.9430 hc         1 2BB       0.041811
     51 H16          6.1980     0.7700    -2.7610 hc         1 2BB       0.041811
     52 H16A         7.1150     2.1870    -3.2920 hc         1 2BB       0.041811
     53 H16B         6.2500     2.2200    -1.7490 hc         1 2BB       0.041811
     54 O4           4.6920     0.8610    -0.4400 o          1 2BB      -0.606100
     55 O2           4.7250    -3.9100     0.5380 o          1 2BB      -0.553100
@<TRIPOS>BOND
     1     1     4 1   
     2     2     8 1   
     3     2    13 1   
     4     3    12 1   
     5     4     6 1   
     6     4     9 1   
     7     5    14 1   
     8     5    15 1   
     9    55    13 2   
    10     7    16 1   
    11     7    17 1   
    12     7    18 1   
    13     9    10 1   
    14    54    14 2   
    15    10    12 1   
    16    10    14 1   
    17    11    16 2   
    18    12    13 1   
    19    15    16 1   
    20    15    19 1   
    21    19    20 1   
    22    19    21 1   
    23    19    22 1   
    24     1    23 1   
    25     1    24 1   
    26     1    25 1   
    27     2    26 1   
    28     3    27 1   
    29     4    28 1   
    30     5    29 1   
    31     6    30 1   
    32     6    31 1   
    33     6    32 1   
    34     8    33 1   
    35     9    34 1   
    36     9    35 1   
    37    10    36 1   
    38    12    37 1   
    39    15    38 1   
    40    17    39 1   
    41    17    40 1   
    42    17    41 1   
    43    18    42 1   
    44    18    43 1   
    45    18    44 1   
    46    20    45 1   
    47    20    46 1   
    48    20    47 1   
    49    21    48 1   
    50    21    49 1   
    51    21    50 1   
    52    22    51 1   
    53    22    52 1   
    54    22    53 1   
@<TRIPOS>SUBSTRUCTURE
     1 2BB         1 TEMP              0 ****  ****    0 ROOT
