@<TRIPOS>MOLECULE
2BB
   55    54     1     0     0
SMALL
bcc


@<TRIPOS>ATOM
      1 C1           0.0000     0.0000     0.0000 c3         1 2BB      -0.007100
      2 N1           2.6560    -3.3740     1.1330 ns         1 2BB      -0.093400
      3 O1           5.6490    -1.4680     0.2970 oh         1 2BB      -0.538800
      4 C2           1.5300     0.0000     0.0000 c3         1 2BB      -0.071700
      5 N2           3.4840     0.8580    -2.3010 ns         1 2BB      -0.176900
      6 C3           2.0410     0.0000     1.4420 c3         1 2BB      -0.007100
      7 N3           2.2400     4.1870    -2.8610 n          1 2BB      -0.150800
      8 O3           2.3130    -4.7340     1.3280 oh         1 2BB      -0.433100
      9 C4           2.0400    -1.2500    -0.7210 c3         1 2BB      -0.060400
     10 C5           3.5590    -1.1640    -0.8780 c3         1 2BB      -0.112700
     11 O5           1.9210     2.3160    -4.0080 o          1 2BB      -0.650100
     12 C6           4.2330    -1.6060     0.4230 c3         1 2BB       0.113100
     13 C7           3.8900    -3.0470     0.7010 c          1 2BB       0.524100
     14 C8           3.9530     0.2580    -1.1900 c          1 2BB       0.588100
     15 C9           3.7740     2.2730    -2.5470 c3         1 2BB      -0.063300
     16 C10          2.5790     2.9260    -3.1910 c          1 2BB       0.580100
     17 C11          1.0130     4.7820    -3.3980 c3         1 2BB       0.074300
     18 C12          3.0990     4.9660    -1.9650 c3         1 2BB       0.074300
     19 C13          4.9830     2.3920    -3.4770 c3         1 2BB      -0.069000
     20 C14          4.7300     1.5800    -4.7490 c3         1 2BB      -0.010100
     21 C15          5.2010     3.8610    -3.8450 c3         1 2BB      -0.010100
     22 C16          6.2270     1.8530    -2.7680 c3         1 2BB      -0.010100
     23 H1          -0.3610    -0.7930     0.6440 hc         1 2BB       0.009867
     24 H1A         -0.3610    -0.1610    -1.0080 hc         1 2BB       0.009867
     25 H1B         -0.3610     0.9540     0.3640 hc         1 2BB       0.009867
     26 HN1          2.0060    -2.6540     1.3800 hn         1 2BB       0.188500
     27 HO1          6.0550    -1.6140     1.1350 ho         1 2BB       0.395000
     28 H2           1.8910     0.8840    -0.5110 hc         1 2BB       0.040700
     29 HN2          2.9000     0.3490    -2.9360 hn         1 2BB       0.200500
     30 H3           2.1770    -1.0210     1.7770 hc         1 2BB       0.009867
     31 H3A          2.9870     0.5250     1.4910 hc         1 2BB       0.009867
     32 H3B          1.3200     0.4960     2.0810 hc         1 2BB       0.009867
     33 HO3          2.0100    -4.8580     2.2130 ho         1 2BB       0.385000
     34 H4           1.7860    -2.1300    -0.1430 hc         1 2BB       0.036700
     35 H4A          1.5790    -1.3160    -1.7000 hc         1 2BB       0.036700
     36 H5           3.8760    -1.8110    -1.6860 hc         1 2BB       0.061700
     37 H6           3.8820    -0.9870     1.2400 h1         1 2BB       0.045700
     38 H9           3.9920     2.7660    -1.6070 h1         1 2BB       0.077700
     39 H11          1.0710     4.8150    -4.4800 h1         1 2BB       0.016200
     40 H11A         0.9010     5.7880    -3.0130 h1         1 2BB       0.016200
     41 H11B         0.1610     4.1840    -3.1000 h1         1 2BB       0.016200
     42 H12          3.7700     4.2990    -1.4380 h1         1 2BB       0.016200
     43 H12A         3.6760     5.6760    -2.5450 h1         1 2BB       0.016200
     44 H12B         2.4850     5.4990    -1.2490 h1         1 2BB       0.016200
     45 H14          3.8910     2.0030    -5.2880 hc         1 2BB       0.014367
     46 H14A         4.5080     0.5530    -4.4840 hc         1 2BB       0.014367
     47 H14B         5.6130     1.6070    -5.3770 hc         1 2BB       0.014367
     48 H15          4.3310     4.2340    -4.3710 hc         1 2BB       0.014367
     49 H15A         6.0730     3.9480    -4.4830 hc         1 2BB       0.014367
     50 H15B         5.3540     4.4400    -2.9430 hc         1 2BB       0.014367
     51 H16          6.1980     0.7700    -2.7610 hc         1 2BB       0.014367
     52 H16A         7.1150     2.1870    -3.2920 hc         1 2BB       0.014367
     53 H16B         6.2500     2.2200    -1.7490 hc         1 2BB       0.014367
     54 O4           4.6920     0.8610    -0.4400 o          1 2BB      -0.647100
     55 O2           4.7250    -3.9100     0.5380 o          1 2BB      -0.592100
@<TRIPOS>BOND
     1     1     4 1   
     2     1    23 1   
     3     1    24 1   
     4     1    25 1   
     5     2     8 1   
     6     2    13 1   
     7     2    26 1   
     8     3    12 1   
     9     3    27 1   
    10     4     6 1   
    11     4     9 1   
    12     4    28 1   
    13     5    14 1   
    14     5    15 1   
    15     5    29 1   
    16     6    30 1   
    17     6    31 1   
    18     6    32 1   
    19     7    16 1   
    20     7    17 1   
    21     7    18 1   
    22     8    33 1   
    23     9    10 1   
    24     9    34 1   
    25     9    35 1   
    26    10    12 1   
    27    10    14 1   
    28    10    36 1   
    29    11    16 2   
    30    12    13 1   
    31    12    37 1   
    32    13    55 2   
    33    14    54 2   
    34    15    16 1   
    35    15    19 1   
    36    15    38 1   
    37    17    39 1   
    38    17    40 1   
    39    17    41 1   
    40    18    42 1   
    41    18    43 1   
    42    18    44 1   
    43    19    20 1   
    44    19    21 1   
    45    19    22 1   
    46    20    45 1   
    47    20    46 1   
    48    20    47 1   
    49    21    48 1   
    50    21    49 1   
    51    21    50 1   
    52    22    51 1   
    53    22    52 1   
    54    22    53 1   
@<TRIPOS>SUBSTRUCTURE
     1 2BB         1 TEMP              0 ****  ****    0 ROOT
