@<TRIPOS>MOLECULE
2BC
   37    40     1     0     0
SMALL
bcc


@<TRIPOS>ATOM
      1 CAN          0.0000     0.0000     0.0000 ca         1 2BC       0.000000
      2 CAY          1.4020     0.0000     0.0000 ca         1 2BC      -0.055000
      3 CAK          2.1290     0.0000     1.2040 ca         1 2BC      -0.075000
      4 CAH          3.4900    -0.0010     1.1690 ca         1 2BC      -0.103000
      5 CAG          4.1760    -0.0020    -0.0440 ca         1 2BC      -0.085000
      6 CAJ          3.5050    -0.0020    -1.2300 ca         1 2BC      -0.096000
      7 CAX          2.1000    -0.0020    -1.2350 ca         1 2BC      -0.017000
      8 CAL          1.3800    -0.0030    -2.4430 ca         1 2BC      -0.089000
      9 CAI          0.0230    -0.0030    -2.4240 ca         1 2BC      -0.090000
     10 CAV         -0.6820    -0.0010    -1.2070 ca         1 2BC      -0.156000
     11 CAQ         -2.1580    -0.0010    -1.2140 c2         1 2BC       0.273000
     12 OAA         -2.7720     0.0010    -0.1650 o          1 2BC      -0.357000
     13 NAP         -2.8260    -0.0020    -2.3850 ns         1 2BC       0.091000
     14 NAO         -4.2280    -0.0010    -2.3920 n2         1 2BC       0.052000
     15 CAF         -4.8710    -0.0030    -3.5210 c2         1 2BC      -0.473000
     16 CAU         -6.3440    -0.0020    -3.5280 c3         1 2BC      -0.163000
     17 CAM         -7.0390    -0.0030    -4.7400 c2         1 2BC       0.043000
     18 CAR         -8.4180    -0.0030    -4.7430 c2         1 2BC      -0.212000
     19 BrAD        -9.3560    -0.0050    -6.3840 br         1 2BC       0.056000
     20 CAS         -9.1200    -0.0010    -3.5430 c2         1 2BC       0.186000
     21 OAB        -10.4780     0.0000    -3.5540 oh         1 2BC      -0.236000
     22 CAW         -8.4380     0.0000    -2.3340 c2         1 2BC      -0.269000
     23 BrAE        -9.4010     0.0010    -0.7070 br         1 2BC       0.068000
     24 CAT         -7.0540    -0.0060    -2.3190 c2         1 2BC       0.148000
     25 OAC         -6.3860    -0.0110    -1.1370 oh         1 2BC      -0.196000
     26 HAN         -0.5460     0.0020     0.9360 ha         1 2BC       0.130000
     27 HAK          1.6090     0.0010     2.1540 ha         1 2BC       0.110000
     28 HAH          4.0480    -0.0010     2.0980 ha         1 2BC       0.104000
     29 HAG          5.2590    -0.0030    -0.0450 ha         1 2BC       0.102000
     30 HAJ          4.0530    -0.0030    -2.1650 ha         1 2BC       0.108000
     31 HAL          1.9090    -0.0050    -3.3880 ha         1 2BC       0.109000
     32 HAI         -0.5240    -0.0040    -3.3590 ha         1 2BC       0.103000
     33 HNAP        -2.3220    -0.0270    -3.2490 hn         1 2BC       0.092000
     34 HAF         -5.4830     0.8730    -3.3420 DU         1 2BC       0.322000
     35 HAM         -6.4950    -0.0410    -5.6760 ha         1 2BC       0.138000
     36 HOAB       -10.7920     0.8890    -3.5790 ho         1 2BC       0.217000
     37 HOAC        -6.8490    -0.5490    -0.5160 ho         1 2BC       0.221000
@<TRIPOS>BOND
     1     1     2 1   
     2     1    10 1   
     3     1    26 1   
     4     2     3 1   
     5     2     7 1   
     6     3     4 1   
     7     3    27 1   
     8     4     5 1   
     9     4    28 1   
    10     5     6 1   
    11     5    29 1   
    12     6     7 1   
    13     6    30 1   
    14     7     8 1   
    15     8     9 1   
    16     8    31 1   
    17     9    10 1   
    18     9    32 1   
    19    10    11 1   
    20    11    12 1   
    21    11    13 1   
    22    13    14 1   
    23    13    33 1   
    24    14    15 1   
    25    15    16 1   
    26    15    34 1   
    27    16    17 1   
    28    16    24 1   
    29    16    34 1   
    30    17    18 1   
    31    17    35 1   
    32    18    19 1   
    33    18    20 1   
    34    20    21 1   
    35    20    22 1   
    36    21    36 1   
    37    22    23 1   
    38    22    24 1   
    39    24    25 1   
    40    25    37 1   
@<TRIPOS>SUBSTRUCTURE
     1 2BC         1 TEMP              0 ****  ****    0 ROOT
