@<TRIPOS>MOLECULE
molecule
   37    39     1     0     0
SMALL
bcc


@<TRIPOS>ATOM
      1 CAN          0.0000     0.0000     0.0000 ca         1 2BC      -0.037000
      2 CAY          1.4020     0.0000     0.0000 ca         1 2BC      -0.051000
      3 CAK          2.1290     0.0000     1.2040 ca         1 2BC      -0.104000
      4 CAH          3.4900    -0.0010     1.1690 ca         1 2BC      -0.128000
      5 CAG          4.1760    -0.0020    -0.0440 ca         1 2BC      -0.112000
      6 CAJ          3.5050    -0.0020    -1.2300 ca         1 2BC      -0.124000
      7 CAX          2.1000    -0.0020    -1.2350 ca         1 2BC      -0.018000
      8 CAL          1.3800    -0.0030    -2.4430 ca         1 2BC      -0.119000
      9 CAI          0.0230    -0.0030    -2.4240 ca         1 2BC      -0.113000
     10 CAV         -0.6820    -0.0010    -1.2070 ca         1 2BC      -0.155600
     11 CAQ         -2.1580    -0.0010    -1.2140 c          1 2BC       0.692700
     12 OAA         -2.7720     0.0010    -0.1650 o          1 2BC      -0.558100
     13 NAP         -2.8260    -0.0020    -2.3850 ns         1 2BC      -0.356900
     14 NAO         -4.2280    -0.0010    -2.3920 n2         1 2BC      -0.369300
     15 CAF         -4.8710    -0.0030    -3.5210 ce         1 2BC       0.371800
     16 CAU         -6.3440    -0.0020    -3.5280 ca         1 2BC      -0.155900
     17 CAM         -7.0390    -0.0030    -4.7400 ca         1 2BC      -0.038000
     18 CAR         -8.4180    -0.0030    -4.7430 ca         1 2BC      -0.083900
     19 BrAD        -9.3560    -0.0050    -6.3840 br         1 2BC      -0.068100
     20 CAS         -9.1200    -0.0010    -3.5430 ca         1 2BC       0.194100
     21 OAB        -10.4780     0.0000    -3.5540 oh         1 2BC      -0.501100
     22 CAW         -8.4380     0.0000    -2.3340 ca         1 2BC      -0.136900
     23 BrAE        -9.4010     0.0010    -0.7070 br         1 2BC      -0.058100
     24 CAT         -7.0540    -0.0060    -2.3190 ca         1 2BC       0.208100
     25 OAC         -6.3860    -0.0110    -1.1370 oh         1 2BC      -0.450100
     26 HAN         -0.5460     0.0020     0.9360 ha         1 2BC       0.163000
     27 HAK          1.6090     0.0010     2.1540 ha         1 2BC       0.139000
     28 HAH          4.0480    -0.0010     2.0980 ha         1 2BC       0.133000
     29 HAG          5.2590    -0.0030    -0.0450 ha         1 2BC       0.131000
     30 HAJ          4.0530    -0.0030    -2.1650 ha         1 2BC       0.135000
     31 HAL          1.9090    -0.0050    -3.3880 ha         1 2BC       0.136000
     32 HAI         -0.5240    -0.0040    -3.3590 ha         1 2BC       0.120000
     33 HNAP        -2.3220    -0.0190    -3.2490 hn         1 2BC       0.299500
     34 HAF         -4.3250    -0.0050    -4.4560 h4         1 2BC      -0.011200
     35 HAM         -6.4950    -0.0230    -5.6760 ha         1 2BC       0.154000
     36 HOAB       -10.7930    -0.8880    -3.5830 ho         1 2BC       0.437000
     37 HOAC        -6.8320     0.5470    -0.5210 ho         1 2BC       0.436000
@<TRIPOS>BOND
     1     1     2 ar
     2     1    10 ar
     3     2     3 ar
     4     2     7 ar
     5     3     4 ar
     6     4     5 ar
     7     5     6 ar
     8     6     7 ar
     9     7     8 ar
    10     8     9 ar
    11     9    10 ar
    12    10    11 1
    13    11    12 2
    14    11    13 1
    15    13    14 1
    16    14    15 2
    17    15    16 1
    18    16    17 ar
    19    16    24 ar
    20    17    18 ar
    21    18    19 1
    22    18    20 ar
    23    20    21 1
    24    20    22 ar
    25    22    23 1
    26    22    24 ar
    27    24    25 1
    28     1    26 1
    29     3    27 1
    30     4    28 1
    31     5    29 1
    32     6    30 1
    33     8    31 1
    34     9    32 1
    35    13    33 1
    36    15    34 1
    37    17    35 1
    38    21    36 1
    39    25    37 1
@<TRIPOS>SUBSTRUCTURE
     1 2BC         1 TEMP              0 ****  ****    0 ROOT
