@<TRIPOS>MOLECULE
molecule
   31    32     1     0     0
SMALL
bcc


@<TRIPOS>ATOM
      1 CAJ          0.0000     0.0000     0.0000 ca         1 2BE      -0.077500
      2 CAH          1.3790     0.0000     0.0000 ca         1 2BE      -0.131000
      3 CAP          2.0740     0.0000     1.1980 ca         1 2BE       0.050400
      4 ClAD         3.8100    -0.0000     1.1910 cl         1 2BE      -0.098400
      5 CAI          1.3890     0.0020     2.4030 ca         1 2BE      -0.131000
      6 CAK          0.0100     0.0030     2.4150 ca         1 2BE      -0.077500
      7 CAT         -0.6960     0.0020     1.2100 ca         1 2BE      -0.147600
      8 CAO         -2.1730     0.0030     1.2170 c          1 2BE       0.690700
      9 OAA         -2.7850     0.0010     0.1660 o          1 2BE      -0.552100
     10 NAN         -2.8420     0.0040     2.3860 ns         1 2BE      -0.354900
     11 NAM         -4.2430     0.0050     2.3930 n2         1 2BE      -0.370300
     12 CAG         -4.8880     0.0070     3.5190 ce         1 2BE       0.375800
     13 CAU         -6.3610     0.0070     3.5270 ca         1 2BE      -0.156900
     14 CAL         -7.0560     0.0090     4.7380 ca         1 2BE      -0.039000
     15 CAS         -8.4360     0.0100     4.7390 ca         1 2BE      -0.078900
     16 BrAE        -9.3750     0.0130     6.3790 br         1 2BE      -0.065100
     17 CAQ         -9.1360     0.0080     3.5390 ca         1 2BE       0.193100
     18 OAB        -10.4950     0.0090     3.5490 oh         1 2BE      -0.501100
     19 CAV         -8.4540     0.0060     2.3300 ca         1 2BE      -0.135900
     20 BrAF        -9.4150     0.0040     0.7020 br         1 2BE      -0.057100
     21 CAR         -7.0690     0.0120     2.3160 ca         1 2BE       0.206100
     22 OAC         -6.4000     0.0160     1.1340 oh         1 2BE      -0.453100
     23 HAJ         -0.5430    -0.0000    -0.9380 ha         1 2BE       0.148000
     24 HAH          1.9200    -0.0020    -0.9390 ha         1 2BE       0.150500
     25 HAI          1.9380     0.0020     3.3370 ha         1 2BE       0.150500
     26 HAK         -0.5240     0.0050     3.3570 ha         1 2BE       0.148000
     27 HNAN        -2.3380     0.0040     3.2510 hn         1 2BE       0.297500
     28 HAG         -4.3420     0.0080     4.4550 h4         1 2BE      -0.011200
     29 HAL         -6.5140    -0.0460     5.6740 ha         1 2BE       0.154000
     30 HOAB       -10.8110    -0.8790     3.5160 ho         1 2BE       0.437000
     31 HOAC        -6.8130     0.6220     0.5410 ho         1 2BE       0.436000
@<TRIPOS>BOND
     1     1     2 ar
     2     1     7 ar
     3     2     3 ar
     4     3     4 1
     5     3     5 ar
     6     5     6 ar
     7     6     7 ar
     8     7     8 1
     9     8     9 2
    10     8    10 1
    11    10    11 1
    12    11    12 2
    13    12    13 1
    14    13    14 ar
    15    13    21 ar
    16    14    15 ar
    17    15    16 1
    18    15    17 ar
    19    17    18 1
    20    17    19 ar
    21    19    20 1
    22    19    21 ar
    23    21    22 1
    24     1    23 1
    25     2    24 1
    26     5    25 1
    27     6    26 1
    28    10    27 1
    29    12    28 1
    30    14    29 1
    31    18    30 1
    32    22    31 1
@<TRIPOS>SUBSTRUCTURE
     1 2BE         1 TEMP              0 ****  ****    0 ROOT
