@<TRIPOS>MOLECULE
2BE
   31    33     1     0     0
SMALL
bcc


@<TRIPOS>ATOM
      1 CAJ          0.0000     0.0000     0.0000 ca         1 2BE      -0.046000
      2 CAH          1.3790     0.0000     0.0000 ca         1 2BE      -0.109000
      3 CAP          2.0740     0.0000     1.1980 ca         1 2BE      -0.091000
      4 ClAD         3.8100    -0.0000     1.1910 cl         1 2BE       0.062000
      5 CAI          1.3890     0.0020     2.4030 ca         1 2BE      -0.109000
      6 CAK          0.0100     0.0030     2.4150 ca         1 2BE      -0.046000
      7 CAT         -0.6960     0.0020     1.2100 ca         1 2BE      -0.146000
      8 CAO         -2.1730     0.0030     1.2170 c2         1 2BE       0.270000
      9 OAA         -2.7850     0.0010     0.1660 o          1 2BE      -0.353000
     10 NAN         -2.8420     0.0040     2.3860 ns         1 2BE       0.093000
     11 NAM         -4.2430     0.0050     2.3930 n2         1 2BE       0.049000
     12 CAG         -4.8880     0.0070     3.5190 c2         1 2BE      -0.466000
     13 CAU         -6.3610     0.0070     3.5270 c3         1 2BE      -0.168000
     14 CAL         -7.0560     0.0090     4.7380 c2         1 2BE       0.044000
     15 CAS         -8.4360     0.0100     4.7390 c2         1 2BE      -0.211000
     16 BrAE        -9.3750     0.0130     6.3790 br         1 2BE       0.058000
     17 CAQ         -9.1360     0.0080     3.5390 c2         1 2BE       0.188000
     18 OAB        -10.4950     0.0090     3.5490 oh         1 2BE      -0.238000
     19 CAV         -8.4540     0.0060     2.3300 c2         1 2BE      -0.272000
     20 BrAF        -9.4150     0.0040     0.7020 br         1 2BE       0.070000
     21 CAR         -7.0690     0.0120     2.3160 c2         1 2BE       0.148000
     22 OAC         -6.4000     0.0160     1.1340 oh         1 2BE      -0.184000
     23 HAJ         -0.5430    -0.0000    -0.9380 ha         1 2BE       0.119500
     24 HAH          1.9200    -0.0020    -0.9390 ha         1 2BE       0.119500
     25 HAI          1.9380     0.0020     3.3370 ha         1 2BE       0.119500
     26 HAK         -0.5240     0.0050     3.3570 ha         1 2BE       0.119500
     27 HNAN        -2.3380    -0.0030     3.2510 hn         1 2BE       0.090000
     28 HAG         -5.5000     0.8810     3.3340 DU         1 2BE       0.320000
     29 HAL         -6.5140    -0.0480     5.6740 ha         1 2BE       0.138000
     30 HOAB       -10.8110    -0.8790     3.5160 ho         1 2BE       0.219000
     31 HOAC        -6.8780     0.5290     0.5040 ho         1 2BE       0.211000
@<TRIPOS>BOND
     1     1     2 1   
     2     1     7 1   
     3     1    23 1   
     4     2     3 1   
     5     2    24 1   
     6     3     4 1   
     7     3     5 1   
     8     5     6 1   
     9     5    25 1   
    10     6     7 1   
    11     6    26 1   
    12     7     8 1   
    13     8     9 1   
    14     8    10 1   
    15    10    11 1   
    16    10    27 1   
    17    11    12 1   
    18    12    13 1   
    19    12    28 1   
    20    13    14 1   
    21    13    21 1   
    22    13    28 1   
    23    14    15 1   
    24    14    29 1   
    25    15    16 1   
    26    15    17 1   
    27    17    18 1   
    28    17    19 1   
    29    18    30 1   
    30    19    20 1   
    31    19    21 1   
    32    21    22 1   
    33    22    31 1   
@<TRIPOS>SUBSTRUCTURE
     1 2BE         1 TEMP              0 ****  ****    0 ROOT
