@<TRIPOS>MOLECULE
molecule
   33    34     1     0     0
SMALL
bcc


@<TRIPOS>ATOM
      1 C1           0.0000     0.0000     0.0000 ca         1 2BF      -0.150500
      2 C2           1.3830     0.0000     0.0000 ca         1 2BF      -0.191000
      3 C3           2.0740     0.0000     1.1960 ca         1 2BF      -0.150500
      4 C4           1.3840     0.0000     2.3930 ca         1 2BF      -0.106500
      5 C5           0.0010     0.0010     2.3940 ca         1 2BF       0.038700
      6 C6          -0.6900    -0.0040     1.1980 ca         1 2BF      -0.106500
      7 C7          -0.7520     0.0010     3.6990 c3         1 2BF       0.034600
      8 C8          -3.6830    -2.0250     4.7110 ca         1 2BF      -0.038300
      9 C9          -3.7050    -3.3570     4.3450 ca         1 2BF      -0.117500
     10 C10         -4.9110    -4.0260     4.2430 ca         1 2BF      -0.151000
     11 C11         -6.0930    -3.3630     4.5110 ca         1 2BF      -0.166000
     12 C12         -6.0710    -2.0310     4.8770 ca         1 2BF      -0.151000
     13 C13         -4.8650    -1.3630     4.9820 ca         1 2BF      -0.117500
     14 P           -1.0540     1.7200     4.2260 p5         1 2BF       0.995700
     15 O1P         -1.8530     2.4180     3.1950 o          1 2BF      -0.888833
     16 O2P          0.3530     2.4780     4.4180 o          1 2BF      -0.888833
     17 O3P         -1.8580     1.7210     5.6200 o          1 2BF      -0.888833
     18 N           -2.0350    -0.6890     3.5240 n7         1 2BF      -0.794200
     19 C19         -2.3690    -1.2950     4.8200 c3         1 2BF       0.168100
     20 H1          -0.5420    -0.0400    -0.9370 ha         1 2BF       0.087500
     21 H2           1.9240     0.0010    -0.9380 ha         1 2BF       0.079000
     22 H3           3.1570    -0.0200     1.1950 ha         1 2BF       0.087500
     23 H4           1.9250    -0.0320     3.3310 ha         1 2BF       0.136000
     24 H6          -1.7730    -0.0140     1.1980 ha         1 2BF       0.136000
     25 H7          -0.1670    -0.5110     4.4540 h1         1 2BF       0.050700
     26 H9          -2.7780    -3.8760     4.1330 ha         1 2BF       0.146500
     27 H10         -4.9280    -5.0700     3.9560 ha         1 2BF       0.103500
     28 H11         -7.0380    -3.8870     4.4300 ha         1 2BF       0.096000
     29 H12         -6.9980    -1.5120     5.0880 ha         1 2BF       0.103500
     30 H13         -4.8480    -0.3190     5.2690 ha         1 2BF       0.146500
     31 HN          -2.7410    -0.0240     3.2750 hn         1 2BF       0.365800
     32 H191        -1.5900    -1.9940     5.1030 h1         1 2BF       0.065700
     33 H192        -2.4480    -0.5190     5.5720 h1         1 2BF       0.065700
@<TRIPOS>BOND
     1     1     2 ar  
     2     1     6 ar  
     3     1    20 1   
     4     2     3 ar  
     5     2    21 1   
     6     3     4 ar  
     7     3    22 1   
     8     4     5 ar  
     9     4    23 1   
    10     5     6 ar  
    11     5     7 1   
    12     6    24 1   
    13     7    14 1   
    14     7    18 1   
    15     7    25 1   
    16     8     9 ar  
    17     8    13 ar  
    18     8    19 1   
    19     9    10 ar  
    20     9    26 1   
    21    10    11 ar  
    22    10    27 1   
    23    11    12 ar  
    24    11    28 1   
    25    12    13 ar  
    26    12    29 1   
    27    13    30 1   
    28    14    15 1   
    29    14    16 1   
    30    14    17 1   
    31    18    19 1   
    32    18    31 1   
    33    19    32 1   
    34    19    33 1   
@<TRIPOS>SUBSTRUCTURE
     1 2BF         1 TEMP              0 ****  ****    0 ROOT
