@<TRIPOS>MOLECULE
2BG
   20    21     1     0     0
SMALL
bcc


@<TRIPOS>ATOM
      1 NAG          0.0000     0.0000     0.0000 nc         1 2BG      -0.352100
      2 CAJ          1.3470     0.0000     0.0000 ca         1 2BG       0.020400
      3 CAD          2.2470     0.0000     1.0850 ca         1 2BG      -0.008000
      4 CAB          3.5900    -0.0010     0.8660 ca         1 2BG      -0.087000
      5 CAC          4.1000    -0.0000    -0.4260 ca         1 2BG      -0.028000
      6 CAE          3.2440     0.0020    -1.5050 ca         1 2BG      -0.058000
      7 CAK          1.8660     0.0000    -1.2990 ca         1 2BG       0.027900
      8 SAH          0.5140     0.0010    -2.4270 ss         1 2BG      -0.136100
      9 CAI         -0.5970     0.0000    -1.1310 cd         1 2BG       0.193200
     10 CAF         -2.0950     0.0000    -1.2990 c3         1 2BG      -0.009500
     11 NAA         -2.5820     1.3860    -1.3530 nz         1 2BG       0.077400
     12 H1           1.8810     0.0000     2.1040 ha         1 2BG       0.123000
     13 H2           4.2790    -0.0020     1.7020 ha         1 2BG       0.126000
     14 H3           5.1710    -0.0010    -0.5890 ha         1 2BG       0.124000
     15 H4           3.6310     0.0040    -2.5170 ha         1 2BG       0.128000
     16 H5          -2.3560    -0.5100    -2.2180 hx         1 2BG       0.089700
     17 H6          -2.5520    -0.5110    -0.4600 hx         1 2BG       0.089700
     18 H7          -2.3570     1.8520    -0.4960 hn         1 2BG       0.226133
     19 H8          -2.1470     1.8630    -2.1170 hn         1 2BG       0.226133
     20 HAA3        -3.5750     1.3860    -1.4810 hn         1 2BG       0.226133
@<TRIPOS>BOND
     1     1     2 1   
     2     1     9 2   
     3     2     3 ar  
     4     2     7 ar  
     5     3     4 ar  
     6     3    12 1   
     7     4     5 ar  
     8     4    13 1   
     9     5     6 ar  
    10     5    14 1   
    11     6     7 ar  
    12     6    15 1   
    13     7     8 1   
    14     8     9 1   
    15     9    10 1   
    16    10    11 1   
    17    10    16 1   
    18    10    17 1   
    19    11    18 1   
    20    11    19 1   
    21    11    20 1   
@<TRIPOS>SUBSTRUCTURE
     1 2BG         1 TEMP              0 ****  ****    0 ROOT
