@<TRIPOS>MOLECULE
molecule
   20    21     1     0     0
SMALL
bcc


@<TRIPOS>ATOM
      1 NAG          0.0000     0.0000     0.0000 nc         1 2BG      -0.521100
      2 CAJ          1.3470     0.0000     0.0000 ca         1 2BG       0.093400
      3 CAD          2.2470     0.0000     1.0850 ca         1 2BG      -0.047000
      4 CAB          3.5900    -0.0010     0.8660 ca         1 2BG      -0.116000
      5 CAC          4.1000    -0.0000    -0.4260 ca         1 2BG      -0.068000
      6 CAE          3.2440     0.0020    -1.5050 ca         1 2BG      -0.097000
      7 CAK          1.8660     0.0000    -1.2990 ca         1 2BG      -0.020100
      8 SAH          0.5140     0.0010    -2.4270 ss         1 2BG      -0.040100
      9 CAI         -0.5970     0.0000    -1.1310 cd         1 2BG       0.240200
     10 CAF         -2.0950     0.0000    -1.2990 c3         1 2BG       0.116500
     11 NAA         -2.5820     1.3860    -1.3530 nz         1 2BG      -0.811600
     12 H1           1.8810     0.0000     2.1040 ha         1 2BG       0.160000
     13 H2           4.2790    -0.0020     1.7020 ha         1 2BG       0.161000
     14 H3           5.1710    -0.0010    -0.5890 ha         1 2BG       0.161000
     15 H4           3.6310     0.0040    -2.5170 ha         1 2BG       0.156000
     16 H5          -2.3560    -0.5100    -2.2180 hx         1 2BG       0.125200
     17 H6          -2.5520    -0.5110    -0.4600 hx         1 2BG       0.125200
     18 H7          -2.3570     1.8520    -0.4960 hn         1 2BG       0.459800
     19 H8          -2.1470     1.8630    -2.1170 hn         1 2BG       0.459800
     20 HAA3        -3.5750     1.3860    -1.4810 hn         1 2BG       0.459800
@<TRIPOS>BOND
     1     6     5 ar  
     2     6     7 ar  
     3     5     4 ar  
     4     8     7 1   
     5     8     9 1   
     6     7     2 ar  
     7     4     3 ar  
     8     2     3 ar  
     9     2     1 1   
    10     9     1 2   
    11     9    10 1   
    12    10    11 1   
    13     3    12 1   
    14     4    13 1   
    15     5    14 1   
    16     6    15 1   
    17    10    16 1   
    18    10    17 1   
    19    11    18 1   
    20    11    19 1   
    21    20    11 1   
@<TRIPOS>SUBSTRUCTURE
     1 2BG         1 TEMP              0 ****  ****    0 ROOT
