@<TRIPOS>MOLECULE
2BI
   26    27     1     0     0
SMALL
bcc


@<TRIPOS>ATOM
      1 C1          0.0010   -0.0180   -0.0200 ca        1 2BI     -0.357500
      2 C2          1.4000    0.0690    0.0280 ca        1 2BI      0.135400
      3 C3          2.0940    0.0190    1.2370 ca        1 2BI     -0.146000
      4 C4          1.3880   -0.1080    2.4380 ca        1 2BI      0.081400
      5 C5         -0.0140   -0.1790    2.4170 ca        1 2BI     -0.012600
      6 C6         -0.6880   -0.1300    1.1950 ca        1 2BI      0.008000
      7 S7         -0.9290   -0.0300   -1.4450 sy        1 2BI      1.516200
      8 O8         -0.4600   -1.0240   -2.3200 o         1 2BI     -0.630300
      9 O9         -2.2810   -0.1130   -1.0910 o         1 2BI     -0.630300
     10 N10        -0.5710    1.4130   -2.1390 nh        1 2BI     -0.846800
     11 C11        -0.9060    2.6690   -1.6580 cc        1 2BI      0.565200
     12 N12        -1.4350    2.9420   -0.4280 nd        1 2BI     -0.410300
     13 O13        -1.6230    4.2430   -0.3370 os        1 2BI     -0.110100
     14 C14        -1.2100    4.8930   -1.5240 cd        1 2BI      0.295000
     15 C15        -0.7440    3.9340   -2.3970 cc        1 2BI     -0.382600
     16 C16        -1.3670    6.3460   -1.5650 c3        1 2BI     -0.145400
     17 CL7         2.3030    0.2490   -1.3990 cl        1 2BI     -0.063400
     18 CL8         2.2490   -0.1680    3.8920 cl        1 2BI     -0.042400
     19 CL9        -0.9050   -0.3240    3.8490 cl        1 2BI     -0.045400
     20 H1          3.1950    0.0810    1.2500 ha        1 2BI      0.172000
     21 H2         -1.7970   -0.1750    1.1840 ha        1 2BI      0.194000
     22 H3         -0.0590    1.4500   -2.9940 hn        1 2BI      0.469800
     23 H4         -0.3490    4.0430   -3.4000 ha        1 2BI      0.178000
     24 H5         -2.2140    6.6170   -2.2450 hc        1 2BI      0.070033
     25 H6         -0.4300    6.8210   -1.9510 hc        1 2BI      0.070033
     26 H7         -1.5860    6.7500   -0.5440 hc        1 2BI      0.070033
@<TRIPOS>BOND
     1    1    2 ar
     2    1    6 ar
     3    1    7 1
     4    2    3 ar
     5    2   17 1
     6    3    4 ar
     7    3   20 1
     8    4    5 ar
     9    4   18 1
    10    5    6 ar
    11    5   19 1
    12    6   21 1
    13    7    8 2
    14    7    9 2
    15    7   10 1
    16   10   11 1
    17   10   22 1
    18   11   12 2
    19   11   15 1
    20   12   13 1
    21   13   14 1
    22   14   15 2
    23   14   16 1
    24   15   23 1
    25   16   24 1
    26   16   25 1
    27   16   26 1
@<TRIPOS>SUBSTRUCTURE
     1 2BI         1 TEMP              0 ****  ****    0 ROOT
