@<TRIPOS>MOLECULE
2BJ
   47    49     1     0     0
SMALL
bcc


@<TRIPOS>ATOM
      1 C1           0.0000     0.0000     0.0000 ca         1 2BJ      -0.164600
      2 N1          -0.7230    -0.0030     3.6880 no         1 2BJ       1.062200
      3 O1          -1.9420    -0.0030     3.6920 o          1 2BJ      -0.478500
      4 C2           1.4070     0.0000     0.0000 ca         1 2BJ       0.050400
      5 N2          -2.0870    -0.1150    -1.2760 ns         1 2BJ      -0.065100
      6 O2          -0.1100    -0.0040     4.7400 o          1 2BJ      -0.478500
      7 C3           2.0960     0.0000     1.2100 ca         1 2BJ      -0.107000
      8 O3           1.9350    -0.8610    -2.1060 o          1 2BJ      -0.850300
      9 C4           1.3970    -0.0010     2.4030 ca         1 2BJ      -0.020000
     10 O4           3.0680     0.9560    -1.5230 o          1 2BJ      -0.850300
     11 C5           0.0130    -0.0010     2.4030 ca         1 2BJ      -0.500200
     12 O5          -0.1450     0.1060    -2.3300 o          1 2BJ      -0.518100
     13 C6          -0.6870     0.0050     1.2110 ca         1 2BJ      -0.020000
     14 O6          -2.4770     1.5950    -5.7330 os         1 2BJ      -0.211200
     15 C7           2.1510     0.0000    -1.2780 c          1 2BJ       0.958200
     16 C8          -0.7450     0.0010    -1.2780 c          1 2BJ       0.558700
     17 C9          -2.8020     0.0090    -2.4710 ca         1 2BJ      -0.021400
     18 C10         -4.0370    -0.6120    -2.6100 ca         1 2BJ      -0.197000
     19 C11         -4.7420    -0.4900    -3.7930 ca         1 2BJ      -0.046000
     20 C12         -4.2220     0.2480    -4.8380 ca         1 2BJ      -0.242000
     21 C13         -3.2530     1.7750    -6.8340 ca         1 2BJ       0.121100
     22 C14         -2.9880     0.8710    -4.7050 ca         1 2BJ       0.164100
     23 C15         -2.2800     0.7560    -3.5180 ca         1 2BJ      -0.148000
     24 C16         -4.3120     2.6700    -6.8010 ca         1 2BJ      -0.133000
     25 C17         -5.0990     2.8510    -7.9220 ca         1 2BJ      -0.089000
     26 C18         -4.8330     2.1390    -9.0770 ca         1 2BJ      -0.109300
     27 C19         -5.6920     2.3380   -10.2980 c3         1 2BJ       0.066200
     28 C20         -3.7780     1.2460    -9.1130 ca         1 2BJ      -0.080300
     29 C21         -3.4910     0.4720   -10.3740 c3         1 2BJ       0.062200
     30 C22         -2.9840     1.0660    -7.9970 ca         1 2BJ      -0.107000
     31 HN2         -2.5710    -0.3170    -0.4230 hn         1 2BJ       0.169500
     32 H3           3.1790     0.0000     1.2170 ha         1 2BJ       0.131000
     33 H4           1.9350    -0.0010     3.3430 ha         1 2BJ       0.116000
     34 H6          -1.7700     0.0050     1.2200 ha         1 2BJ       0.114000
     35 H10         -4.4470    -1.1910    -1.7920 ha         1 2BJ       0.104000
     36 H11         -5.7050    -0.9750    -3.9000 ha         1 2BJ       0.090000
     37 H12         -4.7770     0.3410    -5.7640 ha         1 2BJ       0.119000
     38 H15         -1.3590     1.3090    -3.3820 ha         1 2BJ       0.170000
     39 H16         -4.5220     3.2290    -5.8960 ha         1 2BJ       0.118000
     40 H17         -5.9260     3.5500    -7.8960 ha         1 2BJ       0.102000
     41 H19         -6.1550     1.3970   -10.5710 hc         1 2BJ       0.004700
     42 H19A        -6.4610     3.0700   -10.0830 hc         1 2BJ       0.004700
     43 H19B        -5.0780     2.6900   -11.1190 hc         1 2BJ       0.004700
     44 H21         -2.6360    -0.1740   -10.2140 hc         1 2BJ       0.007367
     45 H21A        -4.3540    -0.1290   -10.6330 hc         1 2BJ       0.007367
     46 H21B        -3.2750     1.1630   -11.1800 hc         1 2BJ       0.007367
     47 H22         -2.1580     0.3660    -8.0270 ha         1 2BJ       0.126000
@<TRIPOS>BOND
     1     1     4 ar  
     2     1    13 ar  
     3     1    16 1   
     4     2     3 1   
     5     2     6 1   
     6     2    11 1   
     7     4     7 ar  
     8     4    15 1   
     9     5    16 1   
    10     5    17 1   
    11     5    31 1   
    12     7     9 ar  
    13     7    32 1   
    14     8    15 1   
    15     9    11 ar  
    16     9    33 1   
    17    10    15 1   
    18    11    13 ar  
    19    12    16 2   
    20    13    34 1   
    21    14    21 1   
    22    14    22 1   
    23    17    18 ar  
    24    17    23 ar  
    25    18    19 ar  
    26    18    35 1   
    27    19    20 ar  
    28    19    36 1   
    29    20    22 ar  
    30    20    37 1   
    31    21    24 ar  
    32    21    30 ar  
    33    22    23 ar  
    34    23    38 1   
    35    24    25 ar  
    36    24    39 1   
    37    25    26 ar  
    38    25    40 1   
    39    26    27 1   
    40    26    28 ar  
    41    27    41 1   
    42    27    42 1   
    43    27    43 1   
    44    28    29 1   
    45    28    30 ar  
    46    29    44 1   
    47    29    45 1   
    48    29    46 1   
    49    30    47 1   
@<TRIPOS>SUBSTRUCTURE
     1 2BJ         1 TEMP              0 ****  ****    0 ROOT
