@<TRIPOS>MOLECULE
molecule
   47    49     1     0     0
SMALL
bcc


@<TRIPOS>ATOM
      1 C1           0.0000     0.0000     0.0000 ca         1 2BJ      -0.147600
      2 N1          -0.7230    -0.0030     3.6880 no         1 2BJ       0.301200
      3 O1          -1.9420    -0.0030     3.6920 o          1 2BJ      -0.237500
      4 C2           1.4070     0.0000     0.0000 ca         1 2BJ       0.022400
      5 N2          -2.0870    -0.1150    -1.2760 ns         1 2BJ      -0.488100
      6 O2          -0.1100    -0.0040     4.7400 o          1 2BJ      -0.237500
      7 C3           2.0960     0.0000     1.2100 ca         1 2BJ      -0.124000
      8 O3           1.9350    -0.8610    -2.1060 o          1 2BJ      -0.797800
      9 C4           1.3970    -0.0010     2.4030 ca         1 2BJ      -0.072000
     10 O4           3.0680     0.9560    -1.5230 o          1 2BJ      -0.797800
     11 C5           0.0130    -0.0010     2.4030 ca         1 2BJ      -0.198200
     12 O5          -0.1450     0.1060    -2.3300 o          1 2BJ      -0.489100
     13 C6          -0.6870     0.0050     1.2110 ca         1 2BJ      -0.066000
     14 O6          -2.4770     1.5950    -5.7330 os         1 2BJ      -0.238200
     15 C7           2.1510     0.0000    -1.2780 c          1 2BJ       0.874200
     16 C8          -0.7450     0.0010    -1.2780 c          1 2BJ       0.656700
     17 C9          -2.8020     0.0090    -2.4710 ca         1 2BJ       0.112600
     18 C10         -4.0370    -0.6120    -2.6100 ca         1 2BJ      -0.213000
     19 C11         -4.7420    -0.4900    -3.7930 ca         1 2BJ      -0.081000
     20 C12         -4.2220     0.2480    -4.8380 ca         1 2BJ      -0.245000
     21 C13         -3.2530     1.7750    -6.8340 ca         1 2BJ       0.116100
     22 C14         -2.9880     0.8710    -4.7050 ca         1 2BJ       0.152100
     23 C15         -2.2800     0.7560    -3.5180 ca         1 2BJ      -0.155000
     24 C16         -4.3120     2.6700    -6.8010 ca         1 2BJ      -0.150000
     25 C17         -5.0990     2.8510    -7.9220 ca         1 2BJ      -0.120000
     26 C18         -4.8330     2.1390    -9.0770 ca         1 2BJ      -0.096300
     27 C19         -5.6920     2.3380   -10.2980 c3         1 2BJ      -0.042800
     28 C20         -3.7780     1.2460    -9.1130 ca         1 2BJ      -0.077300
     29 C21         -3.4910     0.4720   -10.3740 c3         1 2BJ      -0.044800
     30 C22         -2.9840     1.0660    -7.9970 ca         1 2BJ      -0.126000
     31 HN2         -2.5710    -0.3170    -0.4230 hn         1 2BJ       0.319500
     32 H3           3.1790     0.0000     1.2170 ha         1 2BJ       0.165000
     33 H4           1.9350    -0.0010     3.3430 ha         1 2BJ       0.147000
     34 H6          -1.7700     0.0050     1.2200 ha         1 2BJ       0.139000
     35 H10         -4.4470    -1.1910    -1.7920 ha         1 2BJ       0.125000
     36 H11         -5.7050    -0.9750    -3.9000 ha         1 2BJ       0.121000
     37 H12         -4.7770     0.3410    -5.7640 ha         1 2BJ       0.134000
     38 H15         -1.3590     1.3090    -3.3820 ha         1 2BJ       0.192000
     39 H16         -4.5220     3.2290    -5.8960 ha         1 2BJ       0.144000
     40 H17         -5.9260     3.5500    -7.8960 ha         1 2BJ       0.128000
     41 H19         -6.1550     1.3970   -10.5710 hc         1 2BJ       0.039033
     42 H19A        -6.4610     3.0700   -10.0830 hc         1 2BJ       0.039033
     43 H19B        -5.0780     2.6900   -11.1190 hc         1 2BJ       0.039033
     44 H21         -2.6360    -0.1740   -10.2140 hc         1 2BJ       0.042033
     45 H21A        -4.3540    -0.1290   -10.6330 hc         1 2BJ       0.042033
     46 H21B        -3.2750     1.1630   -11.1800 hc         1 2BJ       0.042033
     47 H22         -2.1580     0.3660    -8.0270 ha         1 2BJ       0.152000
@<TRIPOS>BOND
     1     1    16 1
     2     2    11 1
     3     2     6 1
     4     3     2 1
     5     4     1 ar
     6     4    15 1
     7     5    17 1
     8     5    31 1
     9     7     4 ar
    10     7    32 1
    11     8    15 1
    12     9     7 ar
    13     9    11 ar
    14     9    33 1
    15    11    13 ar
    16    13     1 ar
    17    13    34 1
    18    14    21 1
    19    15    10 1
    20    16     5 1
    21    16    12 2
    22    17    18 ar
    23    17    23 ar
    24    18    19 ar
    25    18    35 1
    26    19    20 ar
    27    19    36 1
    28    20    37 1
    29    21    24 ar
    30    22    14 1
    31    22    20 ar
    32    23    22 ar
    33    23    38 1
    34    24    25 ar
    35    24    39 1
    36    25    40 1
    37    26    25 ar
    38    26    27 1
    39    27    41 1
    40    27    42 1
    41    27    43 1
    42    28    26 ar
    43    29    28 1
    44    29    44 1
    45    29    45 1
    46    29    46 1
    47    30    21 ar
    48    30    28 ar
    49    30    47 1
@<TRIPOS>SUBSTRUCTURE
     1 2BJ         1 TEMP              0 ****  ****    0 ROOT
