@<TRIPOS>MOLECULE
molecule
   39    39     1     0     0
SMALL
bcc


@<TRIPOS>ATOM
      1 C            0.0000     0.0000     0.0000 c          1 2BK       0.913600
      2 CG           1.6430    -1.3220     2.1160 c3         1 2BK      -0.104100
      3 N1           4.8000     4.5910    -2.9220 nb         1 2BK      -0.720000
      4 C2           5.0550     4.3210    -1.6570 ca         1 2BK       0.332600
      5 C2A          5.8560     5.2960    -0.8340 c3         1 2BK      -0.122400
      6 C3           4.5930     3.1480    -1.0760 ca         1 2BK      -0.043200
      7 O3           4.8580     2.8740     0.2290 oh         1 2BK      -0.524100
      8 C4           3.8550     2.2570    -1.8470 ca         1 2BK      -0.078300
      9 C4A          3.3330     0.9720    -1.2570 c3         1 2BK       0.201100
     10 C5           3.6100     2.5790    -3.1730 ca         1 2BK      -0.122600
     11 C5A          2.8140     1.6470    -4.0490 c3         1 2BK       0.242700
     12 C6           4.1020     3.7670    -3.6800 ca         1 2BK       0.428200
     13 P            1.9170     1.4740    -6.5600 p5         1 2BK       1.185900
     14 O1P          0.5320     1.1750    -6.1320 o          1 2BK      -0.912167
     15 O2P          2.6700     0.1040    -6.9400 o          1 2BK      -0.912167
     16 O3P          1.8830     2.4420    -7.8470 o          1 2BK      -0.912167
     17 O4P          2.7030     2.2050    -5.3600 os         1 2BK      -0.592200
     18 N            1.9970     1.1990    -0.6920 n7         1 2BK      -0.753200
     19 CA           1.5070     0.0000     0.0000 c3         1 2BK       0.071500
     20 CB           2.0160     0.0000     1.4440 c3         1 2BK       0.125100
     21 OB           1.4200     1.0840     2.1590 oh         1 2BK      -0.579800
     22 O           -0.6720    -1.0070     0.5810 o          1 2BK      -0.842300
     23 OT          -0.6040     0.9080    -0.5190 o          1 2BK      -0.842300
     24 H1           0.6510    -1.2410     2.5450 hc         1 2BK       0.031033
     25 H2           2.3580    -1.5440     2.8980 hc         1 2BK       0.031033
     26 H3           1.6540    -2.1170     1.3800 hc         1 2BK       0.031033
     27 H4           5.2960     5.5640     0.0540 hc         1 2BK       0.025367
     28 H5           6.7940     4.8390    -0.5440 hc         1 2BK       0.025367
     29 H6           6.0530     6.1860    -1.4190 hc         1 2BK       0.025367
     30 H7           5.7540     2.5940     0.3150 ho         1 2BK       0.385000
     31 H8           3.2750     0.2160    -2.0310 h1         1 2BK       0.025200
     32 H9           4.0040     0.6360    -0.4750 h1         1 2BK       0.025200
     33 H10          3.3160     0.6880    -4.1060 h1         1 2BK       0.058200
     34 H11          1.8250     1.5120    -3.6290 h1         1 2BK       0.058200
     35 H12          3.9140     4.0240    -4.7160 h4         1 2BK       0.076100
     36 H15          2.0320     1.9650    -0.0480 hn         1 2BK       0.359800
     37 H17          1.8680    -0.8850    -0.5110 h1         1 2BK       0.058700
     38 H18          3.0930     0.1150     1.4460 h1         1 2BK      -0.012300
     39 H19          1.9130     1.2520     2.9440 ho         1 2BK       0.355000
@<TRIPOS>BOND
     1    23     1 1
     2    14    13 1
     3     1    22 1
     4     1    19 1
     5    15    13 1
     6    13    17 1
     7    13    16 1
     8    19    18 1
     9    19    20 1
    10    18     9 1
    11    17    11 1
    12     9     8 1
    13     7     6 1
    14    20    21 1
    15    20     2 1
    16     8     6 ar
    17     8    10 ar
    18     6     4 ar
    19    11    10 1
    20    10    12 ar
    21     4     5 1
    22     4     3 ar
    23    12     3 ar
    24     2    24 1
    25     2    25 1
    26     2    26 1
    27     5    27 1
    28     5    28 1
    29     5    29 1
    30     7    30 1
    31     9    31 1
    32     9    32 1
    33    11    33 1
    34    11    34 1
    35    12    35 1
    36    18    36 1
    37    19    37 1
    38    20    38 1
    39    21    39 1
@<TRIPOS>SUBSTRUCTURE
     1 2BK         1 TEMP              0 ****  ****    0 ROOT
