@<TRIPOS>MOLECULE
molecule
   36    36     1     0     0
SMALL
bcc


@<TRIPOS>ATOM
      1 C1           0.0000     0.0000     0.0000 c          1 2BL       0.894600
      2 C2           1.5070     0.0000     0.0000 c3         1 2BL      -0.155700
      3 C3           2.0170     0.0000     1.4430 c3         1 2BL       0.151500
      4 C4           1.5620     1.2580     2.1370 c          1 2BL       0.887600
      5 C5           2.0170    -1.2500    -0.7210 c3         1 2BL      -0.058400
      6 C6           1.6480    -1.1690    -2.2030 c3         1 2BL      -0.073100
      7 C7           2.6480    -0.7990     4.6160 ca         1 2BL      -0.268500
      8 C8           1.7490    -0.7590     5.6650 ca         1 2BL      -0.002000
      9 C9           3.7410     0.0460     4.6080 ca         1 2BL      -0.002000
     10 C10          1.9430     0.1290     6.7070 ca         1 2BL      -0.155000
     11 C11          3.9350     0.9340     5.6510 ca         1 2BL      -0.155000
     12 C12          3.0360     0.9750     6.7000 ca         1 2BL      -0.055300
     13 C13          3.2470     1.9420     7.8360 c3         1 2BL      -0.044800
     14 O1           0.6530     1.2140     2.9310 o          1 2BL      -0.850300
     15 O2           2.1660     2.4260     1.8720 o          1 2BL      -0.850300
     16 O3           3.6810    -2.1460     2.7030 o          1 2BL      -0.693800
     17 O4           1.6060    -2.9900     3.8090 o          1 2BL      -0.693800
     18 N1           1.4850    -1.1680     2.1500 n7         1 2BL      -0.846100
     19 HA           1.8680     0.8840    -0.5110 hc         1 2BL       0.067700
     20 HB           3.0990    -0.0400     1.4430 h1         1 2BL       0.026700
     21 HD1          3.0940    -1.3110    -0.6200 hc         1 2BL       0.012700
     22 HD2          1.5630    -2.1300    -0.2830 hc         1 2BL       0.012700
     23 HE1          2.4040    -1.6750    -2.7920 hc         1 2BL       0.018700
     24 HE2          0.6880    -1.6450    -2.3620 hc         1 2BL       0.018700
     25 HE3          1.5900    -0.1300    -2.5050 hc         1 2BL       0.018700
     26 HG1          0.8930    -1.4220     5.6710 ha         1 2BL       0.146500
     27 HG2          4.4460     0.0140     3.7860 ha         1 2BL       0.146500
     28 HH1          1.2390     0.1610     7.5300 ha         1 2BL       0.111000
     29 HH2          4.7920     1.5970     5.6460 ha         1 2BL       0.111000
     30 HJ1          4.0630     2.6120     7.5940 hc         1 2BL       0.029367
     31 HJ2          3.4860     1.3930     8.7390 hc         1 2BL       0.029367
     32 HJ3          2.3420     2.5180     7.9920 hc         1 2BL       0.029367
     33 O5          -0.6040     0.0010     1.0470 o          1 2BL      -0.852800
     34 O6          -0.6700     0.0060    -1.1630 o          1 2BL      -0.852800
     35 H16          0.5560    -1.4880     1.9570 hn         1 2BL       0.487800
     36 S1           2.4050    -1.9360     3.2910 sy         1 2BL       1.412200
@<TRIPOS>BOND
     1     1     2 1
     2     2     3 1
     3     2     5 1
     4     2    19 1
     5     3     4 1
     6     3    18 1
     7     3    20 1
     8     4    14 1
     9     4    15 1
    10     5     6 1
    11     5    21 1
    12     5    22 1
    13     6    23 1
    14     6    24 1
    15     6    25 1
    16     7     8 ar
    17     7     9 ar
    18     7    36 1
    19     8    10 ar
    20     8    26 1
    21     9    11 ar
    22     9    27 1
    23    10    12 ar
    24    10    28 1
    25    11    12 ar
    26    11    29 1
    27    12    13 1
    28    13    30 1
    29    13    31 1
    30    13    32 1
    31    16    36 2
    32    17    36 2
    33    36    18 1
    34     1    33 1
    35     1    34 1
    36    18    35 1
@<TRIPOS>SUBSTRUCTURE
     1 2BL         1 TEMP              0 ****  ****    0 ROOT
