@<TRIPOS>MOLECULE
2BM
    5     4     1     0     0
SMALL
bcc


@<TRIPOS>ATOM
      1 C           0.0240    0.0000    0.0330 c3        1 2BM      0.009400
      2 BR1         1.9240   -0.0010   -0.0360 br        1 2BM     -0.108400
      3 BR2        -0.6750   -0.0000    1.8020 br        1 2BM     -0.108400
      4 H1         -0.3430    0.9120   -0.4840 h2        1 2BM      0.103700
      5 H2         -0.3440   -0.9110   -0.4850 h2        1 2BM      0.103700
@<TRIPOS>BOND
     1    1    2 1   
     2    1    3 1   
     3    1    4 1   
     4    1    5 1   
@<TRIPOS>SUBSTRUCTURE
     1 2BM         1 TEMP              0 ****  ****    0 ROOT
