@<TRIPOS>MOLECULE
molecule
    5     4     1     0     0
SMALL
bcc


@<TRIPOS>ATOM
      1 C            0.0000     0.0000     0.0000 c3         1 2BM       0.060400
      2 Br1          1.9650     0.0000     0.0000 br         1 2BM      -0.129400
      3 Br2         -0.6560     0.0000     1.8520 br         1 2BM      -0.129400
      4 H1          -0.3610    -0.8840    -0.5110 h2         1 2BM       0.098700
      5 H2          -0.3610     0.8840    -0.5110 h2         1 2BM       0.098700
@<TRIPOS>BOND
     1     1     2 1   
     2     1     3 1   
     3     1     4 1   
     4     1     5 1   
@<TRIPOS>SUBSTRUCTURE
     1 2BM         1 TEMP              0 ****  ****    0 ROOT
