@<TRIPOS>MOLECULE
2BN
   27    28     1     0     0
SMALL
bcc


@<TRIPOS>ATOM
      1 C2           0.0000     0.0000     0.0000 c3         1 2BN       0.104200
      2 N3           1.4940     0.0000     0.0000 n7         1 2BN      -0.584200
      3 C4           1.9080     0.0000     1.4350 c3         1 2BN       0.145800
      4 C5           0.5760     0.0170     2.2460 c3         1 2BN      -0.063700
      5 C6          -0.0200     1.4380     2.0050 c3         1 2BN      -0.029400
      6 C7          -0.4000     1.4380     0.5060 c3         1 2BN      -0.063400
      7 C8          -0.3250    -0.8390     1.2850 c3         1 2BN      -0.068000
      8 C9           0.1640    -2.2840     1.1700 c3         1 2BN       0.004400
      9 C10         -1.8040    -0.7670     1.6640 c3         1 2BN       0.004400
     10 C11         -0.6780    -0.4630    -1.2910 c3         1 2BN       0.037900
     11 HN3          1.8270     0.8330    -0.4440 hn         1 2BN       0.255800
     12 HC41         2.4750    -0.8950     1.6620 h1         1 2BN       0.015700
     13 HC42         2.4940     0.8840     1.6560 h1         1 2BN       0.015700
     14 HC5          0.6300    -0.3200     3.2740 hc         1 2BN       0.053700
     15 HC61        -0.8990     1.5900     2.6200 hc         1 2BN       0.017700
     16 HC62         0.7230     2.2000     2.2080 hc         1 2BN       0.017700
     17 HC71        -1.4650     1.5990     0.3860 hc         1 2BN       0.022200
     18 HC72         0.1610     2.1970    -0.0260 hc         1 2BN       0.022200
     19 HC91         0.3990    -2.6650     2.1560 hc         1 2BN       0.010867
     20 HC92         1.0510    -2.3170     0.5500 hc         1 2BN       0.010867
     21 HC93        -0.6120    -2.8930     0.7220 hc         1 2BN       0.010867
     22 H101        -2.2640     0.0790     1.1680 hc         1 2BN       0.010867
     23 H102        -1.8970    -0.6520     2.7370 hc         1 2BN       0.010867
     24 H103        -2.3010    -1.6790     1.3550 hc         1 2BN       0.010867
     25 H111        -0.2690    -1.4200    -1.5910 hc         1 2BN       0.008367
     26 H112        -1.7440    -0.5610    -1.1250 hc         1 2BN       0.008367
     27 H113        -0.5000     0.2660    -2.0730 hc         1 2BN       0.008367
@<TRIPOS>BOND
     1     1     2 1   
     2     1     6 1   
     3     1     7 1   
     4     1    10 1   
     5     2     3 1   
     6     2    11 1   
     7     3     4 1   
     8     3    12 1   
     9     3    13 1   
    10     4     5 1   
    11     4     7 1   
    12     4    14 1   
    13     5     6 1   
    14     5    15 1   
    15     5    16 1   
    16     6    17 1   
    17     6    18 1   
    18     7     8 1   
    19     7     9 1   
    20     8    19 1   
    21     8    20 1   
    22     8    21 1   
    23     9    22 1   
    24     9    23 1   
    25     9    24 1   
    26    10    25 1   
    27    10    26 1   
    28    10    27 1   
@<TRIPOS>SUBSTRUCTURE
     1 2BN         1 TEMP              0 ****  ****    0 ROOT
