@<TRIPOS>MOLECULE
2BO
   39    39     1     0     0
SMALL
bcc


@<TRIPOS>ATOM
      1 N1           0.0000     0.0000     0.0000 nb         1 2BO      -0.637000
      2 C2           1.3190     0.0000     0.0000 ca         1 2BO       0.242600
      3 C2A          2.0640     0.0010    -1.3100 c3         1 2BO      -0.015400
      4 C3           2.0270     0.0000     1.1940 ca         1 2BO      -0.025200
      5 O3           3.3860     0.0020     1.1890 oh         1 2BO      -0.501100
      6 C4           1.3260    -0.0010     2.3940 ca         1 2BO      -0.105300
      7 C4A          2.0550    -0.0000     3.7130 c3         1 2BO       0.195100
      8 C5          -0.0590    -0.0020     2.3490 ca         1 2BO      -0.090600
      9 C5A         -0.8640    -0.0020     3.6240 c3         1 2BO       0.297700
     10 C6          -0.6940    -0.0010     1.1220 ca         1 2BO       0.414200
     11 P           -3.4120    -0.0040     4.4290 p5         1 2BO       0.668900
     12 O1P         -3.2060    -1.1460     5.3470 o          1 2BO      -0.756167
     13 O2P         -4.8510    -0.1370     3.7190 o          1 2BO      -0.756167
     14 O3P         -3.3500     1.3720     5.2640 o          1 2BO      -0.756167
     15 O4P         -2.2580    -0.0030     3.3070 os         1 2BO      -0.489200
     16 N            2.2900     1.3850     4.1420 n7         1 2BO      -0.514200
     17 CA           3.1090     1.4260     5.3620 c3         1 2BO       0.001500
     18 CB           3.8530     2.7610     5.4320 c3         1 2BO       0.202100
     19 OB           2.9070     3.8310     5.4790 oh         1 2BO      -0.539800
     20 C            2.2190     1.2820     6.5700 c          1 2BO       0.961600
     21 O            2.7530     1.2930     7.8010 o          1 2BO      -0.868300
     22 OT           1.0260     1.1590     6.4290 o          1 2BO      -0.868300
     23 CG           4.7380     2.9180     4.1950 c3         1 2BO      -0.055100
     24 H1           2.6070    -0.9310    -1.4170 hc         1 2BO      -0.014300
     25 H2           2.7610     0.8290    -1.3280 hc         1 2BO      -0.014300
     26 H3           1.3590     0.1040    -2.1260 hc         1 2BO      -0.014300
     27 H4           3.7010    -0.8370     0.8930 ho         1 2BO       0.369000
     28 H5           1.4550    -0.5120     4.4570 h1         1 2BO       0.016200
     29 H6           3.0040    -0.5100     3.6020 h1         1 2BO       0.016200
     30 H7          -0.6250     0.8820     4.2020 h1         1 2BO       0.034200
     31 H8          -0.6250    -0.8870     4.2010 h1         1 2BO       0.034200
     32 H9          -1.7510    -0.0380     0.8880 h4         1 2BO       0.014100
     33 H12          2.7550     1.8860     3.4110 hn         1 2BO       0.222800
     34 H14          3.8260     0.6150     5.3440 h1         1 2BO      -0.008300
     35 H15          4.4690     2.7850     6.3220 h1         1 2BO       0.006700
     36 H16          3.2530     4.5340     6.0040 ho         1 2BO       0.348000
     37 H18          5.0050     1.9380     3.8150 hc         1 2BO      -0.004300
     38 H19          5.6380     3.4590     4.4610 hc         1 2BO      -0.004300
     39 H20          4.1990     3.4660     3.4310 hc         1 2BO      -0.004300
@<TRIPOS>BOND
     1     1     2 ar  
     2     1    10 ar  
     3     2     3 1   
     4     2     4 ar  
     5     3    24 1   
     6     3    25 1   
     7     3    26 1   
     8     4     5 1   
     9     4     6 ar  
    10     5    27 1   
    11     6     7 1   
    12     6     8 ar  
    13     7    16 1   
    14     7    28 1   
    15     7    29 1   
    16     8     9 1   
    17     8    10 ar  
    18     9    15 1   
    19     9    30 1   
    20     9    31 1   
    21    10    32 1   
    22    11    12 1   
    23    11    13 1   
    24    11    14 1   
    25    11    15 1   
    26    16    17 1   
    27    16    33 1   
    28    17    18 1   
    29    17    20 1   
    30    17    34 1   
    31    18    19 1   
    32    18    23 1   
    33    18    35 1   
    34    19    36 1   
    35    20    21 1   
    36    20    22 1   
    37    23    37 1   
    38    23    38 1   
    39    23    39 1   
@<TRIPOS>SUBSTRUCTURE
     1 2BO         1 TEMP              0 ****  ****    0 ROOT
