@<TRIPOS>MOLECULE
molecule
   39    39     1     0     0
SMALL
bcc


@<TRIPOS>ATOM
      1 N1           0.0000     0.0000     0.0000 nb         1 2BO      -0.732000
      2 C2           1.3190     0.0000     0.0000 ca         1 2BO       0.315600
      3 C2A          2.0640     0.0010    -1.3100 c3         1 2BO      -0.121400
      4 C3           2.0270     0.0000     1.1940 ca         1 2BO      -0.046200
      5 O3           3.3860     0.0020     1.1890 oh         1 2BO      -0.527100
      6 C4           1.3260    -0.0010     2.3940 ca         1 2BO      -0.080300
      7 C4A          2.0550    -0.0000     3.7130 c3         1 2BO       0.214100
      8 C5          -0.0590    -0.0020     2.3490 ca         1 2BO      -0.103600
      9 C5A         -0.8640    -0.0020     3.6240 c3         1 2BO       0.238700
     10 C6          -0.6940    -0.0010     1.1220 ca         1 2BO       0.438200
     11 P           -3.4120    -0.0040     4.4290 p5         1 2BO       1.188900
     12 O1P         -3.2060    -1.1460     5.3470 o          1 2BO      -0.913833
     13 O2P         -4.8510    -0.1370     3.7190 o          1 2BO      -0.913833
     14 O3P         -3.3500     1.3720     5.2640 o          1 2BO      -0.913833
     15 O4P         -2.2580    -0.0030     3.3070 os         1 2BO      -0.598200
     16 N            2.2900     1.3850     4.1420 n7         1 2BO      -0.752200
     17 CA           3.1090     1.4260     5.3620 c3         1 2BO       0.065500
     18 CB           3.8530     2.7610     5.4320 c3         1 2BO       0.161100
     19 OB           2.9070     3.8310     5.4790 oh         1 2BO      -0.560800
     20 C            2.2190     1.2820     6.5700 c          1 2BO       0.885600
     21 O            2.7530     1.2930     7.8010 o          1 2BO      -0.819800
     22 OT           1.0260     1.1590     6.4290 o          1 2BO      -0.819800
     23 CG           4.7380     2.9180     4.1950 c3         1 2BO      -0.136100
     24 H1           2.6070    -0.9310    -1.4170 hc         1 2BO       0.022367
     25 H2           2.7610     0.8290    -1.3280 hc         1 2BO       0.022367
     26 H3           1.3590     0.1040    -2.1260 hc         1 2BO       0.022367
     27 H4           3.7010    -0.8370     0.8930 ho         1 2BO       0.385000
     28 H5           1.4550    -0.5120     4.4570 h1         1 2BO       0.040200
     29 H6           3.0040    -0.5100     3.6020 h1         1 2BO       0.040200
     30 H7          -0.6250     0.8820     4.2020 h1         1 2BO       0.075200
     31 H8          -0.6250    -0.8870     4.2010 h1         1 2BO       0.075200
     32 H9          -1.7510    -0.0380     0.8880 h4         1 2BO       0.058100
     33 H12          2.7550     1.8860     3.4110 hn         1 2BO       0.321800
     34 H14          3.8260     0.6150     5.3440 h1         1 2BO       0.001700
     35 H15          4.4690     2.7850     6.3220 h1         1 2BO       0.036700
     36 H16          3.2530     4.5340     6.0040 ho         1 2BO       0.363000
     37 H18          5.0050     1.9380     3.8150 hc         1 2BO       0.022033
     38 H19          5.6380     3.4590     4.4610 hc         1 2BO       0.022033
     39 H20          4.1990     3.4660     3.4310 hc         1 2BO       0.022033
@<TRIPOS>BOND
     1    22    20 1
     2    12    11 1
     3    20    21 1
     4    20    17 1
     5    13    11 1
     6    11    15 1
     7    11    14 1
     8    17    16 1
     9    17    18 1
    10    16     7 1
    11    15     9 1
    12     7     6 1
    13     5     4 1
    14    18    23 1
    15    18    19 1
    16     6     4 ar
    17     6     8 ar
    18     4     2 ar
    19     9     8 1
    20     8    10 ar
    21     2     3 1
    22     2     1 ar
    23    10     1 ar
    24     3    24 1
    25     3    25 1
    26     3    26 1
    27     5    27 1
    28     7    28 1
    29     7    29 1
    30     9    30 1
    31     9    31 1
    32    10    32 1
    33    16    33 1
    34    17    34 1
    35    18    35 1
    36    19    36 1
    37    23    37 1
    38    23    38 1
    39    23    39 1
@<TRIPOS>SUBSTRUCTURE
     1 2BO         1 TEMP              0 ****  ****    0 ROOT
