@<TRIPOS>MOLECULE
2BP
   15    16     1     0     0
SMALL
bcc


@<TRIPOS>ATOM
      1 N9           0.0000     0.0000     0.0000 na         1 2BP       0.166000
      2 C8           1.3640     0.0000     0.0000 cc         1 2BP       0.244700
      3 N7           1.8100     0.0000     1.2220 nd         1 2BP      -0.490100
      4 C5           0.7630     0.0000     2.0860 ca         1 2BP      -0.185200
      5 C6           0.6390    -0.0000     3.4760 ca         1 2BP       0.512200
      6 N1          -0.5720     0.0000     4.0050 nb         1 2BP      -0.640000
      7 C2          -1.6580     0.0000     3.2410 ca         1 2BP       0.713900
      8 N2          -2.9040     0.0000     3.8470 nv         1 2BP      -0.635500
      9 N3          -1.5900     0.0000     1.9190 nb         1 2BP      -0.612000
     10 C4          -0.4120     0.0000     1.3080 ca         1 2BP       0.211800
     11 H8           1.9850     0.0000    -0.8880 h5         1 2BP       0.031800
     12 H6           1.5190    -0.0000     4.1080 h4         1 2BP      -0.009900
     13 HN2         -3.3560     0.8670     4.0610 hn         1 2BP       0.278800
     14 HN2A        -3.3560    -0.8670     4.0610 hn         1 2BP       0.278800
     15 HN9         -0.5920     0.0000    -0.8070 hn         1 2BP       0.134700
@<TRIPOS>BOND
     1     1     2 1   
     2     1    10 1   
     3     1    15 1   
     4     2     3 2   
     5     2    11 1   
     6     3     4 1   
     7     4     5 ar  
     8     4    10 ar  
     9     5     6 ar  
    10     5    12 1   
    11     6     7 ar  
    12     7     8 1   
    13     7     9 ar  
    14     8    13 1   
    15     8    14 1   
    16     9    10 ar  
@<TRIPOS>SUBSTRUCTURE
     1 2BP         1 TEMP              0 ****  ****    0 ROOT
