@<TRIPOS>MOLECULE
molecule
   15    16     1     0     0
SMALL
bcc


@<TRIPOS>ATOM
      1 N9           0.0000     0.0000     0.0000 na         1 2BP      -0.366000
      2 C8           1.3640     0.0000     0.0000 cc         1 2BP       0.432700
      3 N7           1.8100     0.0000     1.2220 nd         1 2BP      -0.582100
      4 C5           0.7630     0.0000     2.0860 ca         1 2BP      -0.166200
      5 C6           0.6390    -0.0000     3.4760 ca         1 2BP       0.525200
      6 N1          -0.5720     0.0000     4.0050 nb         1 2BP      -0.751000
      7 C2          -1.6580     0.0000     3.2410 ca         1 2BP       0.943900
      8 N2          -2.9040     0.0000     3.8470 nv         1 2BP      -1.055500
      9 N3          -1.5900     0.0000     1.9190 nb         1 2BP      -0.759000
     10 C4          -0.4120     0.0000     1.3080 ca         1 2BP       0.449800
     11 H8           1.9850     0.0000    -0.8880 h5         1 2BP       0.081800
     12 H6           1.5190    -0.0000     4.1080 h4         1 2BP       0.042100
     13 HN2         -3.3560     0.8670     4.0610 hn         1 2BP       0.445800
     14 HN2A        -3.3560    -0.8670     4.0610 hn         1 2BP       0.445800
     15 HN9         -0.5920     0.0000    -0.8070 hn         1 2BP       0.314700
@<TRIPOS>BOND
     1     2     1 1
     2     1    10 1
     3     2     3 2
     4     2    11 1
     5     3     4 1
     6     4    10 ar
     7     4     5 ar
     8     5     6 ar
     9     5    12 1
    10     6     7 ar
    11     9     7 ar
    12     7     8 1
    13     8    13 1
    14     8    14 1
    15    10     9 ar
    16     1    15 1
@<TRIPOS>SUBSTRUCTURE
     1 2BP         1 TEMP              0 ****  ****    0 ROOT
