@<TRIPOS>MOLECULE
2BQ
   28    28     1     0     0
SMALL
bcc


@<TRIPOS>ATOM
      1 Cl           0.0000     0.0000     0.0000 cl         1 2BQ       0.003600
      2 C3           1.7360     0.0000     0.0000 ca         1 2BQ      -0.028600
      3 C2           2.4280     0.0000     1.1980 ca         1 2BQ      -0.090500
      4 C4           2.4280    -0.0060    -1.1990 ca         1 2BQ      -0.090500
      5 C5           3.8100    -0.0070    -1.1970 ca         1 2BQ      -0.091500
      6 C6           4.5010    -0.0030    -0.0000 ca         1 2BQ      -0.198300
      7 C1           3.8100    -0.0010     1.1970 ca         1 2BQ      -0.091500
      8 C7           6.0080    -0.0040    -0.0000 c3         1 2BQ       0.258100
      9 O4           6.4850     0.6630    -1.1700 oh         1 2BQ      -0.604800
     10 C8           6.5160    -1.4480     0.0070 c3         1 2BQ      -0.075200
     11 N            5.9680    -2.1650    -1.1530 nz         1 2BQ       0.071400
     12 C9           6.5190     0.7220     1.2450 c3         1 2BQ      -0.110600
     13 S            8.3300     0.6300     1.2980 s6         1 2BQ       0.939800
     14 O1           8.7200     1.5030     2.4820 o          1 2BQ      -0.627200
     15 O2           8.7530    -0.6740     1.6710 o          1 2BQ      -0.627200
     16 O3           8.8960     1.2910     0.1750 o          1 2BQ      -0.627200
     17 H1           1.8870     0.0020     2.1360 ha         1 2BQ       0.123500
     18 H2           1.8870    -0.0100    -2.1370 ha         1 2BQ       0.123500
     19 H3           4.3520    -0.0110    -2.1350 ha         1 2BQ       0.124500
     20 H4           4.3520     0.0010     2.1350 ha         1 2BQ       0.124500
     21 H5           6.2910     1.5840    -1.1080 ho         1 2BQ       0.449000
     22 H6           6.1980    -1.9390     0.9180 hx         1 2BQ       0.117200
     23 H7           7.5980    -1.4500    -0.0450 hx         1 2BQ       0.117200
     24 H8           6.0180    -1.5780    -1.9620 hn         1 2BQ       0.218467
     25 H9           5.0140    -2.4080    -0.9750 hn         1 2BQ       0.218467
     26 H11          6.1080     0.2530     2.1310 h1         1 2BQ       0.077700
     27 H12          6.2110     1.7600     1.2100 h1         1 2BQ       0.077700
     28 HN3          6.4980    -3.0000    -1.3100 hn         1 2BQ       0.218467
@<TRIPOS>BOND
     1     1     2 1   
     2     2     3 ar  
     3     2     4 ar  
     4     3     7 ar  
     5     3    17 1   
     6     4     5 ar  
     7     4    18 1   
     8     5     6 ar  
     9     5    19 1   
    10     6     7 ar  
    11     6     8 1   
    12     7    20 1   
    13     8     9 1   
    14     8    10 1   
    15     8    12 1   
    16     9    21 1   
    17    10    11 1   
    18    10    22 1   
    19    10    23 1   
    20    11    24 1   
    21    11    25 1   
    22    11    28 1   
    23    12    13 1   
    24    12    26 1   
    25    12    27 1   
    26    13    14 1   
    27    13    15 1   
    28    13    16 1   
@<TRIPOS>SUBSTRUCTURE
     1 2BQ         1 TEMP              0 ****  ****    0 ROOT
