@<TRIPOS>MOLECULE
molecule
   28    28     1     0     0
SMALL
bcc


@<TRIPOS>ATOM
      1 Cl           0.0000     0.0000     0.0000 cl         1 2BQ      -0.085400
      2 C3           1.7360     0.0000     0.0000 ca         1 2BQ       0.037400
      3 C2           2.4280     0.0000     1.1980 ca         1 2BQ      -0.118000
      4 C4           2.4280    -0.0060    -1.1990 ca         1 2BQ      -0.118000
      5 C5           3.8100    -0.0070    -1.1970 ca         1 2BQ      -0.120000
      6 C6           4.5010    -0.0030    -0.0000 ca         1 2BQ      -0.166300
      7 C1           3.8100    -0.0010     1.1970 ca         1 2BQ      -0.120000
      8 C7           6.0080    -0.0040    -0.0000 c3         1 2BQ       0.203100
      9 O4           6.4850     0.6630    -1.1700 oh         1 2BQ      -0.616800
     10 C8           6.5160    -1.4480     0.0070 c3         1 2BQ       0.102800
     11 N            5.9680    -2.1650    -1.1530 nz         1 2BQ      -0.806600
     12 C9           6.5190     0.7220     1.2450 c3         1 2BQ      -0.286600
     13 S            8.3300     0.6300     1.2980 s6         1 2BQ       1.213800
     14 O1           8.7200     1.5030     2.4820 o          1 2BQ      -0.673533
     15 O2           8.7530    -0.6740     1.6710 o          1 2BQ      -0.673533
     16 O3           8.8960     1.2910     0.1750 o          1 2BQ      -0.673533
     17 H1           1.8870     0.0020     2.1360 ha         1 2BQ       0.155500
     18 H2           1.8870    -0.0100    -2.1370 ha         1 2BQ       0.155500
     19 H3           4.3520    -0.0110    -2.1350 ha         1 2BQ       0.149500
     20 H4           4.3520     0.0010     2.1350 ha         1 2BQ       0.149500
     21 H5           6.2910     1.5840    -1.1080 ho         1 2BQ       0.457000
     22 H6           6.1980    -1.9390     0.9180 hx         1 2BQ       0.137200
     23 H7           7.5980    -1.4500    -0.0450 hx         1 2BQ       0.137200
     24 H8           6.0180    -1.5780    -1.9620 hn         1 2BQ       0.451133
     25 H9           5.0140    -2.4080    -0.9750 hn         1 2BQ       0.451133
     26 H11          6.1080     0.2530     2.1310 h1         1 2BQ       0.102200
     27 H12          6.2110     1.7600     1.2100 h1         1 2BQ       0.102200
     28 HN3          6.4980    -3.0000    -1.3100 hn         1 2BQ       0.451133
@<TRIPOS>BOND
     1    11    10 1   
     2    10     8 1   
     3     9     8 1   
     4     8    12 1   
     5     8     6 1   
     6    12    13 1   
     7    15    13 1   
     8     6     5 ar  
     9     6     7 ar  
    10     5     4 ar  
    11    13    16 1   
    12    13    14 1   
    13     7     3 ar  
    14     4     2 ar  
    15     3     2 ar  
    16     2     1 1   
    17     3    17 1   
    18     4    18 1   
    19     5    19 1   
    20     7    20 1   
    21     9    21 1   
    22    10    22 1   
    23    10    23 1   
    24    11    24 1   
    25    11    25 1   
    26    12    26 1   
    27    12    27 1   
    28    28    11 1   
@<TRIPOS>SUBSTRUCTURE
     1 2BQ         1 TEMP              0 ****  ****    0 ROOT
