@<TRIPOS>MOLECULE
2BR
   13    13     1     0     0
SMALL
bcc


@<TRIPOS>ATOM
      1 C13        -0.0090    0.0310   -0.0110 ca        1 2BR     -0.167000
      2 C14         1.3750   -0.0910    0.0330 ca        1 2BR     -0.067000
      3 C15         2.0450   -0.1740    1.2600 ca        1 2BR     -0.115900
      4 C16         1.2960   -0.1320    2.4490 ca        1 2BR      0.157100
      5 C17        -0.1070   -0.0090    2.4030 ca        1 2BR     -0.159000
      6 C18        -0.7480    0.0720    1.1750 ca        1 2BR     -0.083000
      7 O3          1.8330   -0.2040    3.7090 oh        1 2BR     -0.491100
      8 BR1         3.9130   -0.3370    1.2660 br        1 2BR     -0.088100
      9 H13        -0.5220    0.0950   -0.9810 ha        1 2BR      0.140000
     10 H14         1.9490   -0.1220   -0.9070 ha        1 2BR      0.147000
     11 H17        -0.6690    0.0210    3.3480 ha        1 2BR      0.156000
     12 H18        -1.8440    0.1680    1.1360 ha        1 2BR      0.139000
     13 HO3         2.7970   -0.2870    3.6310 ho        1 2BR      0.432000
@<TRIPOS>BOND
     1    1    2 ar  
     2    1    6 ar  
     3    1    9 1   
     4    2    3 ar  
     5    2   10 1   
     6    3    4 ar  
     7    3    8 1   
     8    4    5 ar  
     9    4    7 1   
    10    5    6 ar  
    11    5   11 1   
    12    6   12 1   
    13    7   13 1   
@<TRIPOS>SUBSTRUCTURE
     1 2BR         1 TEMP              0 ****  ****    0 ROOT
