@<TRIPOS>MOLECULE
molecule
   13    13     1     0     0
SMALL
bcc


@<TRIPOS>ATOM
      1 C13          0.0000     0.0000     0.0000 ca         1 2BR      -0.137000
      2 C14          1.3820     0.0000     0.0000 ca         1 2BR      -0.091000
      3 C15          2.0750     0.0000     1.1960 ca         1 2BR      -0.043900
      4 C16          1.3800    -0.0130     2.3980 ca         1 2BR       0.129100
      5 C17         -0.0070    -0.0130     2.3940 ca         1 2BR      -0.153000
      6 C18         -0.6950    -0.0060     1.1960 ca         1 2BR      -0.104000
      7 O3           2.0580    -0.0200     3.5760 oh         1 2BR      -0.511100
      8 Br1          3.9650    -0.0000     1.1960 br         1 2BR      -0.081100
      9 H13         -0.5410     0.0030    -0.9390 ha         1 2BR       0.138000
     10 H14          1.9220     0.0070    -0.9390 ha         1 2BR       0.146000
     11 H17         -0.5520    -0.0210     3.3310 ha         1 2BR       0.145000
     12 H18         -1.7780    -0.0060     1.1930 ha         1 2BR       0.137000
     13 HO3          2.1540    -0.9080     3.8780 ho         1 2BR       0.425000
@<TRIPOS>BOND
     1     1     2 ar  
     2     1     6 ar  
     3     1     9 1   
     4     2     3 ar  
     5     2    10 1   
     6     3     4 ar  
     7     3     8 1   
     8     4     5 ar  
     9     4     7 1   
    10     5     6 ar  
    11     5    11 1   
    12     6    12 1   
    13     7    13 1   
@<TRIPOS>SUBSTRUCTURE
     1 2BR         1 TEMP              0 ****  ****    0 ROOT
