@<TRIPOS>MOLECULE
2BS
   25    26     1     0     0
SMALL
bcc


@<TRIPOS>ATOM
      1 C1           0.0000     0.0000     0.0000 c          1 2BS       0.722700
      2 S1          -4.5460     0.0000     2.8340 ss         1 2BS      -0.264100
      3 C2           2.0070     0.0000    -1.2940 c3         1 2BS       0.228400
      4 N2          -2.9380    -0.0030     4.7710 nc         1 2BS      -0.461100
      5 O2           1.3480     0.0000     0.0000 os         1 2BS      -0.414900
      6 C3           3.5240    -0.0000    -1.0940 c3         1 2BS      -0.004100
      7 C4          -0.7360     0.0000     1.2770 ca         1 2BS      -0.144600
      8 C5          -2.1300     0.0000     1.2820 ca         1 2BS       0.023000
      9 C6          -2.8180    -0.0010     2.4860 ca         1 2BS      -0.025100
     10 C7          -4.2120    -0.0010     4.5600 cd         1 2BS       0.495100
     11 C8          -2.1220    -0.0020     3.7020 ca         1 2BS       0.097400
     12 C9          -0.7080    -0.0020     3.6720 ca         1 2BS      -0.061000
     13 O01         -0.6080     0.0060    -1.0510 o          1 2BS      -0.588000
     14 N02         -5.1720    -0.0010     5.5470 nv         1 2BS      -0.523800
     15 C10         -0.0380    -0.0020     2.4930 ca         1 2BS      -0.062000
     16 H2           1.7160     0.8850    -1.8470 h1         1 2BS       0.009700
     17 H2A          1.7150    -0.8840    -1.8470 h1         1 2BS       0.009700
     18 H3           3.8150     0.8840    -0.5400 hc         1 2BS       0.011033
     19 H3A          3.8150    -0.8850    -0.5400 hc         1 2BS       0.011033
     20 H3B          4.0150    -0.0000    -2.0590 hc         1 2BS       0.011033
     21 H5          -2.6750    -0.0470     0.3470 ha         1 2BS       0.134000
     22 H9          -0.1530    -0.0030     4.6030 ha         1 2BS       0.117000
     23 HN02        -5.5280    -0.8670     5.9000 hn         1 2BS       0.279800
     24 HN0A        -5.5260     0.8660     5.9010 hn         1 2BS       0.279800
     25 H10          1.0450    -0.0040     2.4910 ha         1 2BS       0.121000
@<TRIPOS>BOND
     1     1     5 1   
     2     1     7 1   
     3     1    13 2   
     4     2     9 1   
     5     2    10 1   
     6     3     5 1   
     7     3     6 1   
     8     3    16 1   
     9     3    17 1   
    10     4    10 2   
    11     4    11 1   
    12     6    18 1   
    13     6    19 1   
    14     6    20 1   
    15     7     8 ar  
    16     7    15 ar  
    17     8     9 ar  
    18     8    21 1   
    19     9    11 ar  
    20    10    14 1   
    21    11    12 ar  
    22    12    15 ar  
    23    12    22 1   
    24    14    23 1   
    25    14    24 1   
    26    15    25 1   
@<TRIPOS>SUBSTRUCTURE
     1 2BS         1 TEMP              0 ****  ****    0 ROOT
