@<TRIPOS>MOLECULE
2BV
   52    53     1     0     0
SMALL
bcc


@<TRIPOS>ATOM
      1 O1           0.0000     0.0000     0.0000 o          1 2BV      -0.636000
      2 P            1.4800     0.0000     0.0000 p5         1 2BV       0.365400
      3 O2           2.0170     0.0000     1.5170 o          1 2BV      -0.636000
      4 C12          2.0880    -1.4880    -0.8600 c3         1 2BV      -0.047600
      5 C13          1.4780    -2.7340    -0.2150 c3         1 2BV       0.005300
      6 C18          0.0130    -2.8640    -0.6400 c3         1 2BV      -0.052400
      7 C17         -0.5950    -4.1110     0.0050 c3         1 2BV      -0.021400
      8 C16          0.1790    -5.3490    -0.4480 c3         1 2BV      -0.026400
      9 C15          1.6420    -5.2200    -0.0230 c3         1 2BV      -0.021400
     10 C14          2.2520    -3.9740    -0.6690 c3         1 2BV      -0.052400
     11 C11          2.0870     1.4900    -0.8600 c3         1 2BV      -0.068600
     12 C10          1.4770     2.7350    -0.2140 c3         1 2BV       0.238100
     13 O3           1.9480     2.8550     1.1290 oh         1 2BV      -0.562800
     14 C9           1.8860     3.9750    -1.0120 c3         1 2BV       0.103800
     15 N            1.3010     5.1710    -0.3920 n7         1 2BV      -0.573200
     16 C2           1.6730     6.3830    -1.1320 c3         1 2BV       0.165800
     17 C1           0.7010     6.5900    -2.2950 c3         1 2BV      -0.029100
     18 C3           1.6130     7.5740    -0.2100 ca         1 2BV      -0.052300
     19 C8           0.5910     7.6800     0.7160 ca         1 2BV      -0.067000
     20 C7           0.5350     8.7700     1.5620 ca         1 2BV      -0.092000
     21 C6           1.5020     9.7570     1.4840 ca         1 2BV      -0.042600
     22 Cl1          1.4310    11.1280     2.5480 cl         1 2BV      -0.030400
     23 C5           2.5250     9.6510     0.5580 ca         1 2BV      -0.035600
     24 Cl2          3.7390    10.8880     0.4590 cl         1 2BV      -0.029400
     25 C4           2.5820     8.5560    -0.2860 ca         1 2BV      -0.089000
     26 H2           3.1670    -1.5340    -0.7840 hc         1 2BV       0.010200
     27 H3           1.8010    -1.4450    -1.9040 hc         1 2BV       0.010200
     28 H4           1.5330    -2.6520     0.8630 hc         1 2BV       0.051700
     29 H5          -0.5340    -1.9880    -0.3160 hc         1 2BV       0.025200
     30 H6          -0.0420    -2.9540    -1.7180 hc         1 2BV       0.025200
     31 H7          -1.6310    -4.2030    -0.2980 hc         1 2BV       0.002200
     32 H8          -0.5350    -4.0240     1.0830 hc         1 2BV       0.002200
     33 H9           0.1240    -5.4330    -1.5270 hc         1 2BV      -0.004300
     34 H10          2.1900    -6.0970    -0.3470 hc         1 2BV       0.002200
     35 H11          3.2880    -3.8820    -0.3660 hc         1 2BV       0.025200
     36 H12          2.1930    -4.0610    -1.7470 hc         1 2BV       0.025200
     37 H13          3.1670     1.5360    -0.7830 hc         1 2BV       0.017200
     38 H14          1.8010     1.4460    -1.9030 hc         1 2BV       0.017200
     39 H15          0.3970     2.6470    -0.2110 h1         1 2BV       0.009700
     40 H16          1.2130     2.8940     1.7180 ho         1 2BV       0.389000
     41 H17          1.5280     3.8830    -2.0300 h1         1 2BV       0.007200
     42 H18          2.9660     4.0620    -1.0150 h1         1 2BV       0.007200
     43 H19          0.3040     5.0830    -0.3750 hn         1 2BV       0.253800
     44 H21          2.6800     6.2760    -1.5180 h1         1 2BV       0.039700
     45 H22         -0.2990     6.3150    -1.9830 hc         1 2BV       0.008033
     46 H23          0.7120     7.6310    -2.5950 hc         1 2BV       0.008033
     47 H24          1.0020     5.9700    -3.1320 hc         1 2BV       0.008033
     48 H25         -0.1660     6.9080     0.7770 ha         1 2BV       0.120000
     49 H26         -0.2660     8.8530     2.2870 ha         1 2BV       0.114000
     50 H27          3.3830     8.4720    -1.0110 ha         1 2BV       0.117000
     51 H28         -0.2520    -6.2310     0.0100 hc         1 2BV      -0.004300
     52 H29          1.6980    -5.1310     1.0550 hc         1 2BV       0.002200
@<TRIPOS>BOND
     1     1     2 1   
     2     2     3 1   
     3     2     4 1   
     4     2    11 1   
     5     4     5 1   
     6     4    26 1   
     7     4    27 1   
     8     5     6 1   
     9     5    10 1   
    10     5    28 1   
    11     6     7 1   
    12     6    29 1   
    13     6    30 1   
    14     7     8 1   
    15     7    31 1   
    16     7    32 1   
    17     8     9 1   
    18     8    33 1   
    19     8    51 1   
    20     9    10 1   
    21     9    34 1   
    22     9    52 1   
    23    10    35 1   
    24    10    36 1   
    25    11    12 1   
    26    11    37 1   
    27    11    38 1   
    28    12    13 1   
    29    12    14 1   
    30    12    39 1   
    31    13    40 1   
    32    14    15 1   
    33    14    41 1   
    34    14    42 1   
    35    15    16 1   
    36    15    43 1   
    37    16    17 1   
    38    16    18 1   
    39    16    44 1   
    40    17    45 1   
    41    17    46 1   
    42    17    47 1   
    43    18    19 ar  
    44    18    25 ar  
    45    19    20 ar  
    46    19    48 1   
    47    20    21 ar  
    48    20    49 1   
    49    21    22 1   
    50    21    23 ar  
    51    23    24 1   
    52    23    25 ar  
    53    25    50 1   
@<TRIPOS>SUBSTRUCTURE
     1 2BV         1 TEMP              0 ****  ****    0 ROOT
