@<TRIPOS>MOLECULE
molecule
   52    53     1     0     0
SMALL
bcc


@<TRIPOS>ATOM
      1 O1           0.0000     0.0000     0.0000 o          1 2BV      -0.808000
      2 P            1.4800     0.0000     0.0000 p5         1 2BV       1.004400
      3 O2           2.0170     0.0000     1.5170 o          1 2BV      -0.808000
      4 C12          2.0880    -1.4880    -0.8600 c3         1 2BV      -0.270600
      5 C13          1.4780    -2.7340    -0.2150 c3         1 2BV      -0.024700
      6 C18          0.0130    -2.8640    -0.6400 c3         1 2BV      -0.085400
      7 C17         -0.5950    -4.1110     0.0050 c3         1 2BV      -0.077400
      8 C16          0.1790    -5.3490    -0.4480 c3         1 2BV      -0.079400
      9 C15          1.6420    -5.2200    -0.0230 c3         1 2BV      -0.077400
     10 C14          2.2520    -3.9740    -0.6690 c3         1 2BV      -0.085400
     11 C11          2.0870     1.4900    -0.8600 c3         1 2BV      -0.282600
     12 C10          1.4770     2.7350    -0.2140 c3         1 2BV       0.190100
     13 O3           1.9480     2.8550     1.1290 oh         1 2BV      -0.576800
     14 C9           1.8860     3.9750    -1.0120 c3         1 2BV       0.138800
     15 N            1.3010     5.1710    -0.3920 n7         1 2BV      -0.803200
     16 C2           1.6730     6.3830    -1.1320 c3         1 2BV       0.204800
     17 C1           0.7010     6.5900    -2.2950 c3         1 2BV      -0.125100
     18 C3           1.6130     7.5740    -0.2100 ca         1 2BV      -0.045300
     19 C8           0.5910     7.6800     0.7160 ca         1 2BV      -0.092000
     20 C7           0.5350     8.7700     1.5620 ca         1 2BV      -0.116000
     21 C6           1.5020     9.7570     1.4840 ca         1 2BV       0.023400
     22 Cl1          1.4310    11.1280     2.5480 cl         1 2BV      -0.108400
     23 C5           2.5250     9.6510     0.5580 ca         1 2BV       0.030400
     24 Cl2          3.7390    10.8880     0.4590 cl         1 2BV      -0.106400
     25 C4           2.5820     8.5560    -0.2860 ca         1 2BV      -0.114000
     26 H2           3.1670    -1.5340    -0.7840 hc         1 2BV       0.038200
     27 H3           1.8010    -1.4450    -1.9040 hc         1 2BV       0.038200
     28 H4           1.5330    -2.6520     0.8630 hc         1 2BV       0.074700
     29 H5          -0.5340    -1.9880    -0.3160 hc         1 2BV       0.047950
     30 H6          -0.0420    -2.9540    -1.7180 hc         1 2BV       0.047950
     31 H7          -1.6310    -4.2030    -0.2980 hc         1 2BV       0.030200
     32 H8          -0.5350    -4.0240     1.0830 hc         1 2BV       0.030200
     33 H9           0.1240    -5.4330    -1.5270 hc         1 2BV       0.022700
     34 H10          2.1900    -6.0970    -0.3470 hc         1 2BV       0.030200
     35 H11          3.2880    -3.8820    -0.3660 hc         1 2BV       0.047950
     36 H12          2.1930    -4.0610    -1.7470 hc         1 2BV       0.047950
     37 H13          3.1670     1.5360    -0.7830 hc         1 2BV       0.047700
     38 H14          1.8010     1.4460    -1.9030 hc         1 2BV       0.047700
     39 H15          0.3970     2.6470    -0.2110 h1         1 2BV       0.043700
     40 H16          1.2130     2.8940     1.7180 ho         1 2BV       0.407000
     41 H17          1.5280     3.8830    -2.0300 h1         1 2BV       0.031700
     42 H18          2.9660     4.0620    -1.0150 h1         1 2BV       0.031700
     43 H19          0.3040     5.0830    -0.3750 hn         1 2BV       0.348800
     44 H21          2.6800     6.2760    -1.5180 h1         1 2BV       0.068700
     45 H22         -0.2990     6.3150    -1.9830 hc         1 2BV       0.039033
     46 H23          0.7120     7.6310    -2.5950 hc         1 2BV       0.039033
     47 H24          1.0020     5.9700    -3.1320 hc         1 2BV       0.039033
     48 H25         -0.1660     6.9080     0.7770 ha         1 2BV       0.150000
     49 H26         -0.2660     8.8530     2.2870 ha         1 2BV       0.146000
     50 H27          3.3830     8.4720    -1.0110 ha         1 2BV       0.147000
     51 H28         -0.2520    -6.2310     0.0100 hc         1 2BV       0.022700
     52 H29          1.6980    -5.1310     1.0550 hc         1 2BV       0.030200
@<TRIPOS>BOND
     1    17    16 1   
     2    15    14 1   
     3    15    16 1   
     4    13    12 1   
     5    14    12 1   
     6    16    18 1   
     7    12    11 1   
     8     1     2 1   
     9    11     2 1   
    10    18    25 ar  
    11    18    19 ar  
    12    25    23 ar  
    13     2     3 1   
    14     2     4 1   
    15    19    20 ar  
    16    23    24 1   
    17    23    21 ar  
    18     4     5 1   
    19    20    21 ar  
    20    21    22 1   
    21     5    10 1   
    22     5     6 1   
    23    10     9 1   
    24     6     7 1   
    25     9     8 1   
    26     7     8 1   
    27     4    26 1   
    28     4    27 1   
    29     5    28 1   
    30     6    29 1   
    31     6    30 1   
    32     7    31 1   
    33     7    32 1   
    34     8    33 1   
    35     9    34 1   
    36    10    35 1   
    37    10    36 1   
    38    11    37 1   
    39    11    38 1   
    40    12    39 1   
    41    13    40 1   
    42    14    41 1   
    43    14    42 1   
    44    15    43 1   
    45    16    44 1   
    46    17    45 1   
    47    17    46 1   
    48    17    47 1   
    49    19    48 1   
    50    20    49 1   
    51    25    50 1   
    52     8    51 1   
    53     9    52 1   
@<TRIPOS>SUBSTRUCTURE
     1 2BV         1 TEMP              0 ****  ****    0 ROOT
