@<TRIPOS>MOLECULE
2BW
   34    33     1     0     0
SMALL
bcc


@<TRIPOS>ATOM
      1 O3           0.0000     0.0000     0.0000 o          1 2BW      -0.615500
      2 P            1.6100     0.0000     0.0000 p5         1 2BW       0.387400
      3 O4           2.1030     0.0000     1.3960 o          1 2BW      -0.615500
      4 C6           2.2170    -1.4890    -0.8580 c3         1 2BW      -0.058600
      5 C7           1.8120    -2.7350    -0.0680 c3         1 2BW       0.015600
      6 C8           2.3220    -3.9850    -0.7890 c3         1 2BW      -0.075200
      7 N            1.9330    -5.1810    -0.0300 nz         1 2BW       0.076400
      8 C3           2.2190     1.4880    -0.8600 c3         1 2BW       0.399700
      9 O2           1.6220     1.5660    -2.1560 os         1 2BW      -0.413600
     10 C4           2.2690     2.4840    -3.0400 c3         1 2BW       0.178400
     11 C5           1.4770     2.5790    -4.3450 c3         1 2BW       0.002400
     12 O1           1.8710     2.6500    -0.1050 os         1 2BW      -0.413600
     13 C2           0.4740     2.7690     0.1690 c3         1 2BW       0.178400
     14 C1           0.2000     4.1130     0.8500 c3         1 2BW       0.002400
     15 H2           3.2970    -1.4460    -0.9360 hc         1 2BW       0.025200
     16 H3           1.7850    -1.5350    -1.8510 hc         1 2BW       0.025200
     17 H4           2.2440    -2.6900     0.9240 hc         1 2BW       0.043700
     18 H5           0.7320    -2.7780     0.0090 hc         1 2BW       0.043700
     19 H6           3.4010    -3.9420    -0.8670 hx         1 2BW       0.073200
     20 H7           1.8900    -4.0320    -1.7820 hx         1 2BW       0.073200
     21 H8           2.3320    -5.1380     0.8870 hn         1 2BW       0.214133
     22 H9           0.9350    -5.2200     0.0420 hn         1 2BW       0.214133
     23 H11          3.2960     1.4310    -0.9610 h2         1 2BW       0.000700
     24 H12          3.2730     2.1350    -3.2500 h1         1 2BW       0.010700
     25 H13          2.3170     3.4610    -2.5740 h1         1 2BW       0.010700
     26 H14          1.9660     3.2770    -5.0140 hc         1 2BW      -0.002967
     27 H15          1.4330     1.6030    -4.8130 hc         1 2BW      -0.002967
     28 H16          0.4730     2.9240    -4.1340 hc         1 2BW      -0.002967
     29 H17         -0.0820     2.7140    -0.7590 h1         1 2BW       0.010700
     30 H18          0.1640     1.9630     0.8240 h1         1 2BW       0.010700
     31 H19          0.4380     4.9190     0.1660 hc         1 2BW      -0.002967
     32 H20         -0.8450     4.1710     1.1270 hc         1 2BW      -0.002967
     33 H21          0.8150     4.2000     1.7380 hc         1 2BW      -0.002967
     34 HN3          2.2550    -5.9990    -0.5080 hn         1 2BW       0.214133
@<TRIPOS>BOND
     1     1     2 1   
     2     2     3 1   
     3     2     4 1   
     4     2     8 1   
     5     4     5 1   
     6     4    15 1   
     7     4    16 1   
     8     5     6 1   
     9     5    17 1   
    10     5    18 1   
    11     6     7 1   
    12     6    19 1   
    13     6    20 1   
    14     7    21 1   
    15     7    22 1   
    16     7    34 1   
    17     8     9 1   
    18     8    12 1   
    19     8    23 1   
    20     9    10 1   
    21    10    11 1   
    22    10    24 1   
    23    10    25 1   
    24    11    26 1   
    25    11    27 1   
    26    11    28 1   
    27    12    13 1   
    28    13    14 1   
    29    13    29 1   
    30    13    30 1   
    31    14    31 1   
    32    14    32 1   
    33    14    33 1   
@<TRIPOS>SUBSTRUCTURE
     1 2BW         1 TEMP              0 ****  ****    0 ROOT
