@<TRIPOS>MOLECULE
2BX
   26    26     1     0     0
SMALL
bcc


@<TRIPOS>ATOM
      1 O1           0.0000     0.0000     0.0000 o          1 2BX      -0.899800
      2 C1           1.2080     0.0000     0.0000 c          1 2BX       0.982600
      3 O2           1.8790     0.0000     1.1630 o          1 2BX      -0.899800
      4 C2           1.9620    -0.0060    -1.3050 c3         1 2BX      -0.139400
      5 C3           0.9680    -0.0120    -2.4680 c3         1 2BX       0.196100
      6 C6           1.7290     0.1020    -3.7910 c3         1 2BX       0.088800
      7 N            0.7760     0.0190    -4.9070 n7         1 2BX      -0.576200
      8 C5           0.0300    -1.2470    -4.8620 c3         1 2BX       0.056200
      9 C8          -0.9770    -1.2880    -6.0140 c3         1 2BX      -0.012100
     10 C7           1.0050    -2.4200    -4.9940 c3         1 2BX      -0.012100
     11 C4          -0.7140    -1.3480    -3.5280 c3         1 2BX       0.215400
     12 O3           0.2240    -1.2330    -2.4550 os         1 2BX      -0.365600
     13 H2           2.5850     0.8770    -1.3670 hc         1 2BX       0.012700
     14 H3           2.5850    -0.8920    -1.3580 hc         1 2BX       0.012700
     15 H4           0.2870     0.8250    -2.3720 h1         1 2BX       0.031700
     16 H5           2.2460     1.0530    -3.8290 h1         1 2BX       0.009700
     17 H6           2.4440    -0.7080    -3.8660 h1         1 2BX       0.009700
     18 H7           1.2710     0.0840    -5.7750 hn         1 2BX       0.238800
     19 H9          -0.4450    -1.3230    -6.9570 hc         1 2BX       0.005533
     20 H10         -1.5990    -0.4020    -5.9820 hc         1 2BX       0.005533
     21 H11         -1.5990    -2.1700    -5.9170 hc         1 2BX       0.005533
     22 H12          1.7630    -2.1780    -5.7290 hc         1 2BX       0.005533
     23 H13          0.4650    -3.3040    -5.3090 hc         1 2BX       0.005533
     24 H14          1.4770    -2.6060    -4.0370 hc         1 2BX       0.005533
     25 H15         -1.2160    -2.3070    -3.4670 h1         1 2BX       0.008700
     26 H16         -1.4410    -0.5480    -3.4590 h1         1 2BX       0.008700
@<TRIPOS>BOND
     1     1     2 1   
     2     2     3 1   
     3     2     4 1   
     4     4     5 1   
     5     4    13 1   
     6     4    14 1   
     7     5     6 1   
     8     5    12 1   
     9     5    15 1   
    10     6     7 1   
    11     6    16 1   
    12     6    17 1   
    13     7     8 1   
    14     7    18 1   
    15     8     9 1   
    16     8    10 1   
    17     8    11 1   
    18     9    19 1   
    19     9    20 1   
    20     9    21 1   
    21    10    22 1   
    22    10    23 1   
    23    10    24 1   
    24    11    12 1   
    25    11    25 1   
    26    11    26 1   
@<TRIPOS>SUBSTRUCTURE
     1 2BX         1 TEMP              0 ****  ****    0 ROOT
