@<TRIPOS>MOLECULE
2BY
   27    27     1     0     0
SMALL
bcc


@<TRIPOS>ATOM
      1 Cl           0.0000     0.0000     0.0000 cl         1 2BY      -0.060400
      2 C3           1.7360     0.0000     0.0000 ca         1 2BY      -0.051600
      3 C2           2.4290     0.0000     1.1980 ca         1 2BY      -0.103500
      4 C4           2.4280    -0.0060    -1.1980 ca         1 2BY      -0.103500
      5 C5           3.8100    -0.0070    -1.1980 ca         1 2BY      -0.105500
      6 C6           4.5010    -0.0020    -0.0000 ca         1 2BY      -0.116300
      7 C1           3.8100    -0.0010     1.1970 ca         1 2BY      -0.105500
      8 C7           6.0080    -0.0040    -0.0010 c3         1 2BY       0.052600
      9 C8           6.5170    -1.2500     0.7270 c3         1 2BY      -0.126200
     10 N            6.1270    -2.4500    -0.0260 nz         1 2BY       0.066400
     11 C9           6.5190     1.2490     0.7140 c3         1 2BY      -0.043600
     12 P            8.2870     1.4850     0.3370 p5         1 2BY       0.432700
     13 O1           8.8570     2.7240     1.1910 o          1 2BY      -0.704500
     14 O3           8.4660     1.7880    -1.2340 o          1 2BY      -0.704500
     15 O2           9.0350     0.2560     0.6900 o          1 2BY      -0.704500
     16 H1           1.8880     0.0010     2.1360 ha         1 2BY       0.107000
     17 H2           1.8860    -0.0100    -2.1360 ha         1 2BY       0.107000
     18 H3           4.3510    -0.0100    -2.1360 ha         1 2BY       0.120500
     19 H4           4.3520     0.0010     2.1350 ha         1 2BY       0.120500
     20 H5           6.3690    -0.0090    -1.0220 hc         1 2BY       0.062700
     21 H6           6.0840    -1.2900     1.7190 hx         1 2BY       0.114700
     22 H7           7.5960    -1.2080     0.8050 hx         1 2BY       0.114700
     23 H8           6.6810    -3.2270     0.2750 hn         1 2BY       0.196800
     24 H9           6.2760    -2.2940    -1.0030 hn         1 2BY       0.196800
     25 H11          6.3900     1.1320     1.7840 hc         1 2BY       0.019200
     26 H12          5.9590     2.1120     0.3750 hc         1 2BY       0.019200
     27 HN3          5.1620    -2.6510     0.1440 hn         1 2BY       0.196800
@<TRIPOS>BOND
     1     1     2 1   
     2     2     3 ar  
     3     2     4 ar  
     4     3     7 ar  
     5     3    16 1   
     6     4     5 ar  
     7     4    17 1   
     8     5     6 ar  
     9     5    18 1   
    10     6     7 ar  
    11     6     8 1   
    12     7    19 1   
    13     8     9 1   
    14     8    11 1   
    15     8    20 1   
    16     9    10 1   
    17     9    21 1   
    18     9    22 1   
    19    10    23 1   
    20    10    24 1   
    21    10    27 1   
    22    11    12 1   
    23    11    25 1   
    24    11    26 1   
    25    12    13 1   
    26    12    14 1   
    27    12    15 1   
@<TRIPOS>SUBSTRUCTURE
     1 2BY         1 TEMP              0 ****  ****    0 ROOT
