@<TRIPOS>MOLECULE
2BZ
   35    38     1     0     0
SMALL
bcc


@<TRIPOS>ATOM
      1 N3           0.0000     0.0000     0.0000 nc         1 2BZ      -0.081000
      2 C4           1.3370     0.0000     0.0000 ca         1 2BZ       0.316600
      3 C5           2.2460     0.0000     1.1480 ca         1 2BZ      -0.208800
      4 C6           1.9120     0.0010     2.5740 cc         1 2BZ       0.214000
      5 C7           3.0490     0.0020     3.5180 ca         1 2BZ      -0.176500
      6 C10          3.2350    -0.0010    -1.4550 ca         1 2BZ      -0.044000
      7 C13         -1.7260     0.0020     3.1190 cc         1 2BZ       0.237300
      8 C20          3.2840     1.1110     4.3330 ca         1 2BZ      -0.056000
      9 C21          4.3460     1.1050     5.2120 ca         1 2BZ      -0.096000
     10 C22          5.1800     0.0040     5.2880 ca         1 2BZ      -0.070000
     11 C24          3.8930    -1.1100     3.6030 ca         1 2BZ      -0.028600
     12 C1          -0.4780     0.0010     2.4900 cd         1 2BZ       0.054000
     13 C2          -0.8050     0.0010     1.0430 cd         1 2BZ       0.156000
     14 N8           0.6960     0.0010     3.1110 nd         1 2BZ      -0.142000
     15 C9           1.8810    -0.0000    -1.2970 ca         1 2BZ      -0.117300
     16 C11          4.0960    -0.0020    -0.3630 ca         1 2BZ      -0.398200
     17 C12          3.6260    -0.0000     0.9190 ca         1 2BZ      -0.039000
     18 C14         -1.9770     0.0020     4.6050 c3         1 2BZ      -0.000400
     19 N15         -2.6440     0.0020     2.1680 nc         1 2BZ      -0.225000
     20 N16         -2.1450     0.0010     0.9860 nd         1 2BZ      -0.309000
     21 N17          5.5570    -0.0020    -0.5960 no         1 2BZ       1.034200
     22 O18          5.9930    -0.0030    -1.7330 o          1 2BZ      -0.439000
     23 O19          6.3250    -0.0020     0.3510 o          1 2BZ      -0.439000
     24 C23          4.9560    -1.0990     4.4840 ca         1 2BZ      -0.089000
     25 Cl25         3.6070    -2.4970     2.5990 cl         1 2BZ      -0.014400
     26 H10          3.6500    -0.0020    -2.4550 ha         1 2BZ       0.140000
     27 H20          2.6310     1.9740     4.2750 ha         1 2BZ       0.114000
     28 H21          4.5280     1.9650     5.8450 ha         1 2BZ       0.111000
     29 H22          6.0150     0.0070     5.9790 ha         1 2BZ       0.111000
     30 H9           1.2300     0.0000    -2.1630 ha         1 2BZ       0.140000
     31 H12          4.3180    -0.0010     1.7540 ha         1 2BZ       0.172000
     32 H14         -1.6320     0.9370     5.0290 hc         1 2BZ       0.017033
     33 H14A        -3.0390    -0.1090     4.7910 hc         1 2BZ       0.017033
     34 H14B        -1.4420    -0.8210     5.0620 hc         1 2BZ       0.017033
     35 H23          5.6120    -1.9590     4.5500 ha         1 2BZ       0.122000
@<TRIPOS>BOND
     1     1     2 1   
     2     1    13 2   
     3     2     3 ar  
     4     2    15 ar  
     5     3     4 1   
     6     3    17 ar  
     7     4     5 1   
     8     4    14 2   
     9     5     8 ar  
    10     5    11 ar  
    11     6    15 ar  
    12     6    16 ar  
    13     6    26 1   
    14     7    12 2   
    15     7    18 1   
    16     7    19 1   
    17     8     9 ar  
    18     8    27 1   
    19     9    10 ar  
    20     9    28 1   
    21    10    24 ar  
    22    10    29 1   
    23    11    24 ar  
    24    11    25 1   
    25    12    13 1   
    26    12    14 1   
    27    13    20 1   
    28    15    30 1   
    29    16    17 ar  
    30    16    21 1   
    31    17    31 1   
    32    18    32 1   
    33    18    33 1   
    34    18    34 1   
    35    19    20 2   
    36    21    22 1   
    37    21    23 1   
    38    24    35 1   
@<TRIPOS>SUBSTRUCTURE
     1 2BZ         1 TEMP              0 ****  ****    0 ROOT
