@<TRIPOS>MOLECULE
2C0
   26    26     1     0     0
SMALL
bcc


@<TRIPOS>ATOM
      1 Cl           0.0000     0.0000     0.0000 cl         1 2C0      -0.005400
      2 C8           1.7350     0.0000     0.0000 ca         1 2C0      -0.034600
      3 C7           2.4280     0.0000     1.1970 ca         1 2C0      -0.092500
      4 C6           3.8110     0.0000     1.1960 ca         1 2C0      -0.093000
      5 C9           2.4280    -0.0050    -1.1990 ca         1 2C0      -0.092500
      6 C10          3.8100    -0.0050    -1.1980 ca         1 2C0      -0.093000
      7 C5           4.5010     0.0020    -0.0010 ca         1 2C0      -0.154300
      8 C2           6.0080     0.0020    -0.0020 c3         1 2C0       0.026600
      9 C1           6.5170     1.2520    -0.7230 c3         1 2C0      -0.088200
     10 N            6.1270     2.4490     0.0360 nz         1 2C0       0.083400
     11 C3           6.5180    -1.2460    -0.7240 c3         1 2C0      -0.130400
     12 C4           8.0200    -1.3080    -0.6180 c          1 2C0       0.973600
     13 O2           8.6910    -2.3250    -1.1810 o          1 2C0      -0.876300
     14 O1           8.6210    -0.4420    -0.0250 o          1 2C0      -0.876300
     15 H1           1.8870    -0.0010     2.1360 ha         1 2C0       0.121000
     16 H2           4.3530     0.0030     2.1340 ha         1 2C0       0.117000
     17 H3           1.8870    -0.0100    -2.1370 ha         1 2C0       0.121000
     18 H4           4.3510    -0.0060    -2.1370 ha         1 2C0       0.117000
     19 H5           6.3690     0.0020     1.0190 hc         1 2C0       0.057700
     20 H6           6.0850     1.2980    -1.7160 hx         1 2C0       0.110200
     21 H7           7.5960     1.2100    -0.8010 hx         1 2C0       0.110200
     22 H8           6.6800     3.2280    -0.2620 hn         1 2C0       0.210467
     23 H9           6.2760     2.2870     1.0120 hn         1 2C0       0.210467
     24 H11          6.0870    -2.1290    -0.2670 hc         1 2C0       0.033700
     25 H12          6.2310    -1.2030    -1.7670 hc         1 2C0       0.033700
     26 HN3          5.1840     2.6960    -0.1920 hn         1 2C0       0.210467
@<TRIPOS>BOND
     1     1     2 1   
     2     2     3 ar  
     3     2     5 ar  
     4     3     4 ar  
     5     3    15 1   
     6     4     7 ar  
     7     4    16 1   
     8     5     6 ar  
     9     5    17 1   
    10     6     7 ar  
    11     6    18 1   
    12     7     8 1   
    13     8     9 1   
    14     8    11 1   
    15     8    19 1   
    16     9    10 1   
    17     9    20 1   
    18     9    21 1   
    19    10    22 1   
    20    10    23 1   
    21    10    26 1   
    22    11    12 1   
    23    11    24 1   
    24    11    25 1   
    25    12    13 1   
    26    12    14 1   
@<TRIPOS>SUBSTRUCTURE
     1 2C0         1 TEMP              0 ****  ****    0 ROOT
