@<TRIPOS>MOLECULE
2C1
   49    50     1     0     0
SMALL
bcc


@<TRIPOS>ATOM
      1 N3           0.0000     0.0000     0.0000 ns         1 2C1      -0.319300
      2 C5           1.3480     0.0000     0.0000 c          1 2C1       0.581100
      3 C6           3.4110     0.1080    -1.1700 ca         1 2C1       0.406200
      4 C7           5.3900     0.2120     0.0190 ca         1 2C1       0.418200
      5 C8          -1.1720     2.6520     2.1020 cc         1 2C1       0.004000
      6 C10          0.3760     3.4710     3.5800 cd         1 2C1       0.035600
      7 N12          6.0440     0.2060     1.2510 ns         1 2C1      -0.131400
      8 C13         -0.7060     3.7250     2.8430 cc         1 2C1      -0.162300
      9 C15          4.0890     0.2220    -2.3770 ca         1 2C1      -0.302300
     10 C28          5.2330    -0.3690     4.7910 c3         1 2C1       0.104300
     11 S1          -0.8270     0.0000     1.4350 sy         1 2C1       1.074900
     12 C2          -0.4720     1.5250     2.2430 cd         1 2C1      -0.044600
     13 S4           0.8620     1.7950     3.3580 ss         1 2C1      -0.118800
     14 N9           4.0710     0.1060    -0.0220 nb         1 2C1      -0.531000
     15 N11          2.0210     0.0010    -1.1680 ns         1 2C1      -0.121400
     16 C14          5.3460    -0.0180     2.3820 c          1 2C1       0.528100
     17 C16          6.1300     0.3290    -1.1510 ca         1 2C1      -0.302300
     18 O17         -2.2080     0.0350     1.1010 o          1 2C1      -0.559800
     19 O18         -0.2460    -1.0220     2.2330 o          1 2C1      -0.559800
     20 C19          5.4710     0.3340    -2.3700 ca         1 2C1       0.125100
     21 O20          1.9560    -0.0000     1.0530 o          1 2C1      -0.537100
     22 O21          4.1360    -0.1200     2.3400 o          1 2C1      -0.579100
     23 N22          5.9910    -0.1270     3.5610 ns         1 2C1      -0.228900
     24 Br1          6.4360     0.4910    -3.9890 br         1 2C1      -0.121100
     25 C25         -1.3700     5.0770     2.8160 c3         1 2C1       0.083200
     26 O26          1.1290     5.3550     6.7170 os         1 2C1      -0.421600
     27 C27          0.4660     4.4100     5.8730 c3         1 2C1       0.209400
     28 C29          0.6330     5.3830     8.0570 c3         1 2C1       0.257700
     29 H1          -0.5000    -0.0380    -0.8660 hn         1 2C1       0.218500
     30 H2          -2.0410     2.7210     1.4600 ha         1 2C1       0.128000
     31 H3           7.0270     0.3840     1.2960 hn         1 2C1       0.161500
     32 H4           3.5440     0.2230    -3.3130 ha         1 2C1       0.127000
     33 H5           4.5740     0.4700     4.9810 h1         1 2C1       0.008367
     34 H6           5.9200    -0.4830     5.6220 h1         1 2C1       0.008367
     35 H7           4.6450    -1.2720     4.6820 h1         1 2C1       0.008367
     36 H8           1.5210    -0.0290    -2.0340 hn         1 2C1       0.164500
     37 H9           7.2090     0.4150    -1.1100 ha         1 2C1       0.128000
     38 H10          6.9880    -0.0380     3.5970 hn         1 2C1       0.157500
     39 H11          2.1290     4.2260     4.5230 hc         1 2C1       0.033200
     40 H12          0.9510     5.4630     4.0620 hc         1 2C1       0.033200
     41 H13         -0.6270     5.8410     2.6210 hc         1 2C1       0.008700
     42 H14         -2.1200     5.0950     2.0340 hc         1 2C1       0.008700
     43 H15         -1.8410     5.2670     3.7730 hc         1 2C1       0.008700
     44 H16          0.5890     3.4140     6.2800 h1         1 2C1      -0.002300
     45 H17         -0.5890     4.6510     5.8200 h1         1 2C1      -0.002300
     46 H18         -0.4140     5.6590     8.0490 h1         1 2C1      -0.013300
     47 H19          0.7450     4.4030     8.5040 h1         1 2C1      -0.013300
     48 H20          1.1930     6.1090     8.6340 h1         1 2C1      -0.013300
     49 C23          1.0740     4.4670     4.4700 c3         1 2C1       0.054900
@<TRIPOS>BOND
     1     1     2 1   
     2     1    11 1   
     3     1    29 1   
     4     2    15 1   
     5     2    21 2   
     6     3     9 ar  
     7     3    14 ar  
     8     3    15 1   
     9     4     7 1   
    10     4    14 ar  
    11     4    17 ar  
    12     5     8 1   
    13     5    12 2   
    14     5    30 1   
    15     6     8 2   
    16     6    13 1   
    17     6    49 1   
    18     7    16 1   
    19     7    31 1   
    20     8    25 1   
    21     9    20 ar  
    22     9    32 1   
    23    10    23 1   
    24    10    33 1   
    25    10    34 1   
    26    10    35 1   
    27    11    12 1   
    28    11    18 2   
    29    11    19 2   
    30    12    13 1   
    31    15    36 1   
    32    16    22 2   
    33    16    23 1   
    34    17    20 ar  
    35    17    37 1   
    36    20    24 1   
    37    23    38 1   
    38    25    41 1   
    39    25    42 1   
    40    25    43 1   
    41    26    27 1   
    42    26    28 1   
    43    27    44 1   
    44    27    45 1   
    45    27    49 1   
    46    28    46 1   
    47    28    47 1   
    48    28    48 1   
    49    39    49 1   
    50    40    49 1   
@<TRIPOS>SUBSTRUCTURE
     1 2C1         1 TEMP              0 ****  ****    0 ROOT
