@<TRIPOS>MOLECULE
molecule
   21    22     1     0     0
SMALL
bcc


@<TRIPOS>ATOM
      1 O10          0.0000     0.0000     0.0000 o          1 2C2      -0.813300
      2 C10          1.3560     0.0000     0.0000 c          1 2C2       0.895600
      3 O11          2.0430     0.0030    -1.0100 o          1 2C2      -0.813300
      4 C9           1.8850     0.0000     1.4010 c3         1 2C2       0.264800
      5 O8           3.3000    -0.0570     1.2700 oh         1 2C2      -0.582800
      6 O2           1.4810     1.2470     1.9710 os         1 2C2      -0.310900
      7 C2           0.6660     1.2360     3.0690 ca         1 2C2       0.186100
      8 C1           0.1850     0.0660     3.6610 ca         1 2C2      -0.100800
      9 C7           0.5560    -1.2280     3.1110 ce         1 2C2      -0.143200
     10 C8           1.3610    -1.2500     2.0460 c2         1 2C2      -0.119200
     11 C3           0.3160     2.4840     3.5910 ca         1 2C2      -0.171000
     12 C4          -0.5150     2.5650     4.7080 ca         1 2C2      -0.115000
     13 C5          -0.9970     1.4010     5.3030 ca         1 2C2      -0.188000
     14 C6          -0.6490     0.1530     4.7830 ca         1 2C2      -0.100000
     15 HO8          3.7000     0.4500     1.9570 ho         1 2C2       0.378000
     16 H7           0.1930    -2.1470     3.5550 ha         1 2C2       0.118000
     17 H8           1.6480    -2.2080     1.6310 ha         1 2C2       0.137000
     18 H3           0.6900     3.3890     3.1280 ha         1 2C2       0.137000
     19 H4          -0.7860     3.5330     5.1130 ha         1 2C2       0.113000
     20 H5          -1.6420     1.4640     6.1710 ha         1 2C2       0.110000
     21 H6          -1.0250    -0.7500     5.2480 ha         1 2C2       0.117000
@<TRIPOS>BOND
     1     1     2 1   
     2     2     3 1   
     3     2     4 1   
     4     4     5 1   
     5     4     6 1   
     6     4    10 1   
     7     5    15 1   
     8     6     7 1   
     9     7    11 ar  
    10     7     8 ar  
    11     8     9 1   
    12     8    14 ar  
    13     9    10 2   
    14     9    16 1   
    15    10    17 1   
    16    11    12 ar  
    17    11    18 1   
    18    12    13 ar  
    19    12    19 1   
    20    13    14 ar  
    21    13    20 1   
    22    14    21 1   
@<TRIPOS>SUBSTRUCTURE
     1 2C2         1 TEMP              0 ****  ****    0 ROOT
