@<TRIPOS>MOLECULE
2C2
   21    22     1     0     0
SMALL
bcc


@<TRIPOS>ATOM
      1 O10         1.1440    1.0170   -0.9140 o         1 2C2     -0.790800
      2 C10         1.5520    0.0110   -0.3000 c         1 2C2      0.967600
      3 O11         1.8330   -1.1190   -0.7710 o         1 2C2     -0.790800
      4 C9          1.7340    0.1210    1.2840 c3        1 2C2      0.215800
      5 O8          3.0620    0.5080    1.5440 oh        1 2C2     -0.577800
      6 O2          0.9870    1.2620    1.7530 os        1 2C2     -0.303900
      7 C2          0.4300    1.2130    2.9990 ca        1 2C2      0.161100
      8 C1          0.2550    0.0130    3.7270 ca        1 2C2     -0.136800
      9 C7          0.7010   -1.2200    3.1100 ce        1 2C2     -0.146200
     10 C8          1.3860   -1.1720    1.9600 c2        1 2C2     -0.167200
     11 C3         -0.0220    2.4370    3.5330 ca        1 2C2     -0.174000
     12 C4         -0.6290    2.4520    4.7820 ca        1 2C2     -0.111000
     13 C5         -0.7930    1.2710    5.5110 ca        1 2C2     -0.196000
     14 C6         -0.3560    0.0600    4.9830 ca        1 2C2     -0.093000
     15 HO8         3.1930    0.4860    2.5000 ho        1 2C2      0.370000
     16 H7          0.4350   -2.1640    3.6060 ha        1 2C2      0.116000
     17 H8          1.7310   -2.0610    1.4070 ha        1 2C2      0.172000
     18 H3          0.1090    3.3550    2.9440 ha        1 2C2      0.146000
     19 H4         -0.9840    3.4050    5.2010 ha        1 2C2      0.113000
     20 H5         -1.2710    1.2990    6.4990 ha        1 2C2      0.111000
     21 H6         -0.4920   -0.8720    5.5510 ha        1 2C2      0.116000
@<TRIPOS>BOND
     1    1    2 1   
     2    2    3 1   
     3    2    4 1   
     4    4    5 1   
     5    4    6 1   
     6    4   10 1   
     7    5   15 1   
     8    6    7 1   
     9    7    8 ar  
    10    7   11 ar  
    11    8    9 1   
    12    8   14 ar  
    13    9   10 2   
    14    9   16 1   
    15   10   17 1   
    16   11   12 ar  
    17   11   18 1   
    18   12   13 ar  
    19   12   19 1   
    20   13   14 ar  
    21   13   20 1   
    22   14   21 1   
@<TRIPOS>SUBSTRUCTURE
     1 2C2         1 TEMP              0 ****  ****    0 ROOT
