@<TRIPOS>MOLECULE
2C3
   60    63     1     0     0
SMALL
bcc


@<TRIPOS>ATOM
      1 N3           0.0000     0.0000     0.0000 nb         1 2C3      -0.724000
      2 C4           1.3280     0.0000     0.0000 ca         1 2C3       0.900300
      3 C6           1.1750    -0.0020    -2.3670 c3         1 2C3       0.257700
      4 C8           1.4360     0.0010     2.3010 ca         1 2C3       0.437200
      5 C10          1.5590     0.0010     4.6610 c          1 2C3       0.624700
      6 C13         -0.6520     0.0010     3.5810 cc         1 2C3       0.126800
      7 C17         -0.4690     0.0270     8.4360 ca         1 2C3      -0.072400
      8 C20         -1.6910    -0.1850    10.9210 ca         1 2C3      -0.099000
      9 C21         -0.3660    -0.5410    10.7710 ca         1 2C3      -0.082000
     10 C22          0.2450    -0.4420     9.5350 ca         1 2C3      -0.052600
     11 C28         -5.9240     2.4660    11.5930 c3         1 2C3      -0.062400
     12 O11          2.2270     0.0000     5.6790 o          1 2C3      -0.696500
     13 N9           2.1670     0.0000     3.4600 ns         1 2C3      -0.003400
     14 N7           2.0370     0.0000     1.1160 nb         1 2C3      -0.684000
     15 O5           1.9790    -0.0020    -1.1850 os         1 2C3      -0.396100
     16 C2          -0.6840     0.0010     1.1280 ca         1 2C3       0.569200
     17 C1           0.0240     0.0010     2.3420 ca         1 2C3      -0.449400
     18 C12          0.0950     0.0010     4.7480 cd         1 2C3      -0.331400
     19 C14         -0.5730     0.0010     6.0600 c          1 2C3       0.622300
     20 O15         -1.7830    -0.1110     6.1260 o          1 2C3      -0.661100
     21 N16          0.1550     0.1250     7.1870 ns         1 2C3      -0.054100
     22 C18         -1.7970     0.3920     8.5790 ca         1 2C3      -0.055000
     23 Cl2          1.9080    -0.9060     9.3530 cl         1 2C3       0.027600
     24 C19         -2.4150     0.2870     9.8250 ca         1 2C3      -0.172600
     25 O25         -4.4610     1.0870     9.0280 o          1 2C3      -0.676100
     26 N26         -4.4280     0.5730    11.1890 ns         1 2C3      -0.222900
     27 C27         -5.8330     0.9570    11.3470 c3         1 2C3       0.101000
     28 N30         -5.5250     4.6620    10.5880 nz         1 2C3       0.131400
     29 C31         -6.4270     0.2210    12.5200 ca         1 2C3      -0.133300
     30 C32         -7.7130    -0.2780    12.4430 ca         1 2C3      -0.079000
     31 C33         -8.2570    -0.9550    13.5200 ca         1 2C3      -0.034600
     32 Cl3         -9.8740    -1.5820    13.4230 cl         1 2C3       0.016600
     33 C35         -7.5140    -1.1330    14.6720 ca         1 2C3      -0.072000
     34 C36         -6.2270    -0.6340    14.7480 ca         1 2C3      -0.071000
     35 C37         -5.6810     0.0370    13.6700 ca         1 2C3      -0.107000
     36 H1           1.8170    -0.0020    -3.2400 h1         1 2C3       0.008033
     37 H2           0.5490    -0.8860    -2.3780 h1         1 2C3       0.008033
     38 H3           0.5510     0.8830    -2.3790 h1         1 2C3       0.008033
     39 H4          -1.7340     0.0010     3.6180 ha         1 2C3       0.132000
     40 H5          -2.1660    -0.2640    11.8910 ha         1 2C3       0.098000
     41 H6           0.1940    -0.9070    11.6230 ha         1 2C3       0.123000
     42 H7          -5.3050     2.7310    12.4420 hc         1 2C3       0.035200
     43 H8          -6.9530     2.7360    11.7980 hc         1 2C3       0.035200
     44 H9           3.1670    -0.0000     3.4130 hn         1 2C3       0.195500
     45 H10         -1.7670     0.0010     1.1190 h4         1 2C3      -0.007900
     46 H11          1.1320     0.3350     7.1310 hn         1 2C3       0.238500
     47 H12         -2.3540     0.7580     7.7250 ha         1 2C3       0.180000
     48 H13         -3.9210     0.2010    11.9680 hn         1 2C3       0.209500
     49 H14         -6.3800     0.7040    10.4470 h1         1 2C3       0.068700
     50 H15         -4.4020     2.9530    10.1640 hx         1 2C3       0.137200
     51 H16         -6.0720     2.6200     9.7070 hx         1 2C3       0.137200
     52 H17         -4.9760     4.9030    11.3890 hn         1 2C3       0.212467
     53 H18         -5.2630     5.2440     9.8170 hn         1 2C3       0.212467
     54 H20         -8.2810    -0.1720    11.5260 ha         1 2C3       0.120000
     55 H21         -7.9410    -1.6610    15.5160 ha         1 2C3       0.127000
     56 H22         -5.6440    -0.7750    15.6500 ha         1 2C3       0.117000
     57 H23         -4.6730     0.4280    13.7300 ha         1 2C3       0.102000
     58 C24         -3.8330     0.6750     9.9840 c          1 2C3       0.615700
     59 H303        -6.4820     4.8990    10.7560 hn         1 2C3       0.212467
     60 C29         -5.4360     3.2150    10.3520 c3         1 2C3      -0.146200
@<TRIPOS>BOND
     1     1     2 ar  
     2     1    16 ar  
     3     2    14 ar  
     4     2    15 1   
     5     3    15 1   
     6     3    36 1   
     7     3    37 1   
     8     3    38 1   
     9     4    13 1   
    10     4    14 ar  
    11     4    17 ar  
    12     5    12 2   
    13     5    13 1   
    14     5    18 1   
    15     6    17 1   
    16     6    18 2   
    17     6    39 1   
    18     7    10 ar  
    19     7    21 1   
    20     7    22 ar  
    21     8     9 ar  
    22     8    24 ar  
    23     8    40 1   
    24     9    10 ar  
    25     9    41 1   
    26    10    23 1   
    27    11    27 1   
    28    11    42 1   
    29    11    43 1   
    30    11    60 1   
    31    13    44 1   
    32    16    17 ar  
    33    16    45 1   
    34    18    19 1   
    35    19    20 2   
    36    19    21 1   
    37    21    46 1   
    38    22    24 ar  
    39    22    47 1   
    40    24    58 1   
    41    25    58 2   
    42    26    27 1   
    43    26    48 1   
    44    26    58 1   
    45    27    29 1   
    46    27    49 1   
    47    28    52 1   
    48    28    53 1   
    49    28    59 1   
    50    28    60 1   
    51    29    30 ar  
    52    29    35 ar  
    53    30    31 ar  
    54    30    54 1   
    55    31    32 1   
    56    31    33 ar  
    57    33    34 ar  
    58    33    55 1   
    59    34    35 ar  
    60    34    56 1   
    61    35    57 1   
    62    50    60 1   
    63    51    60 1   
@<TRIPOS>SUBSTRUCTURE
     1 2C3         1 TEMP              0 ****  ****    0 ROOT
