@<TRIPOS>MOLECULE
molecule
   60    63     1     0     0
SMALL
bcc


@<TRIPOS>ATOM
      1 N3           0.0000     0.0000     0.0000 nb         1 2C3      -0.827000
      2 C4           1.3280     0.0000     0.0000 ca         1 2C3       0.977300
      3 C6           1.1750    -0.0020    -2.3670 c3         1 2C3       0.137700
      4 C8           1.4360     0.0010     2.3010 ca         1 2C3       0.651200
      5 C10          1.5590     0.0010     4.6610 c          1 2C3       0.722700
      6 C13         -0.6520     0.0010     3.5810 cc         1 2C3       0.081800
      7 C17         -0.4690     0.0270     8.4360 ca         1 2C3       0.069600
      8 C20         -1.6910    -0.1850    10.9210 ca         1 2C3      -0.122000
      9 C21         -0.3660    -0.5410    10.7710 ca         1 2C3      -0.109000
     10 C22          0.2450    -0.4420     9.5350 ca         1 2C3       0.021400
     11 C28         -5.9240     2.4660    11.5930 c3         1 2C3      -0.138400
     12 O11          2.2270     0.0000     5.6790 o          1 2C3      -0.644500
     13 N9           2.1670     0.0000     3.4600 ns         1 2C3      -0.486400
     14 N7           2.0370     0.0000     1.1160 nb         1 2C3      -0.800000
     15 O5           1.9790    -0.0020    -1.1850 os         1 2C3      -0.396100
     16 C2          -0.6840     0.0010     1.1280 ca         1 2C3       0.571200
     17 C1           0.0240     0.0010     2.3420 ca         1 2C3      -0.446400
     18 C12          0.0950     0.0010     4.7480 cd         1 2C3      -0.306400
     19 C14         -0.5730     0.0010     6.0600 c          1 2C3       0.703300
     20 O15         -1.7830    -0.1110     6.1260 o          1 2C3      -0.617100
     21 N16          0.1550     0.1250     7.1870 ns         1 2C3      -0.465100
     22 C18         -1.7970     0.3920     8.5790 ca         1 2C3      -0.076000
     23 Cl2          1.9080    -0.9060     9.3530 cl         1 2C3      -0.065400
     24 C19         -2.4150     0.2870     9.8250 ca         1 2C3      -0.159600
     25 O25         -4.4610     1.0870     9.0280 o          1 2C3      -0.635100
     26 N26         -4.4280     0.5730    11.1890 ns         1 2C3      -0.590900
     27 C27         -5.8330     0.9570    11.3470 c3         1 2C3       0.181000
     28 N30         -5.5250     4.6620    10.5880 nz         1 2C3      -0.789600
     29 C31         -6.4270     0.2210    12.5200 ca         1 2C3      -0.117300
     30 C32         -7.7130    -0.2780    12.4430 ca         1 2C3      -0.107000
     31 C33         -8.2570    -0.9550    13.5200 ca         1 2C3       0.037400
     32 Cl3         -9.8740    -1.5820    13.4230 cl         1 2C3      -0.073400
     33 C35         -7.5140    -1.1330    14.6720 ca         1 2C3      -0.098000
     34 C36         -6.2270    -0.6340    14.7480 ca         1 2C3      -0.105000
     35 C37         -5.6810     0.0370    13.6700 ca         1 2C3      -0.129000
     36 H1           1.8170    -0.0020    -3.2400 h1         1 2C3       0.058700
     37 H2           0.5490    -0.8860    -2.3780 h1         1 2C3       0.058700
     38 H3           0.5510     0.8830    -2.3790 h1         1 2C3       0.058700
     39 H4          -1.7340     0.0010     3.6180 ha         1 2C3       0.169000
     40 H5          -2.1660    -0.2640    11.8910 ha         1 2C3       0.123000
     41 H6           0.1940    -0.9070    11.6230 ha         1 2C3       0.157000
     42 H7          -5.3050     2.7310    12.4420 hc         1 2C3       0.064700
     43 H8          -6.9530     2.7360    11.7980 hc         1 2C3       0.064700
     44 H9           3.1670    -0.0000     3.4130 hn         1 2C3       0.366500
     45 H10         -1.7670     0.0010     1.1190 h4         1 2C3       0.045100
     46 H11          1.1320     0.3350     7.1310 hn         1 2C3       0.377500
     47 H12         -2.3540     0.7580     7.7250 ha         1 2C3       0.202000
     48 H13         -3.9210     0.2010    11.9680 hn         1 2C3       0.337500
     49 H14         -6.3800     0.7040    10.4470 h1         1 2C3       0.095700
     50 H15         -4.4020     2.9530    10.1640 hx         1 2C3       0.151700
     51 H16         -6.0720     2.6200     9.7070 hx         1 2C3       0.151700
     52 H17         -4.9760     4.9030    11.3890 hn         1 2C3       0.450467
     53 H18         -5.2630     5.2440     9.8170 hn         1 2C3       0.450467
     54 H20         -8.2810    -0.1720    11.5260 ha         1 2C3       0.149000
     55 H21         -7.9410    -1.6610    15.5160 ha         1 2C3       0.162000
     56 H22         -5.6440    -0.7750    15.6500 ha         1 2C3       0.151000
     57 H23         -4.6730     0.4280    13.7300 ha         1 2C3       0.125000
     58 C24         -3.8330     0.6750     9.9840 c          1 2C3       0.681700
     59 H303        -6.4820     4.8990    10.7560 hn         1 2C3       0.450467
     60 C29         -5.4360     3.2150    10.3520 c3         1 2C3       0.050800
@<TRIPOS>BOND
     1    28    60 1   
     2    60    11 1   
     3    11    27 1   
     4    34    35 ar  
     5    34    33 ar  
     6    35    29 ar  
     7    33    31 ar  
     8     1    16 ar  
     9     1     2 ar  
    10    29    27 1   
    11    29    30 ar  
    12    16    17 ar  
    13    27    26 1   
    14    31    30 ar  
    15    31    32 1   
    16    15     2 1   
    17    15     3 1   
    18     2    14 ar  
    19    26    58 1   
    20    17     6 1   
    21    17     4 ar  
    22     6    18 2   
    23    20    19 2   
    24    14     4 ar  
    25     4    13 1   
    26    58    25 2   
    27    58    24 1   
    28    18    19 1   
    29    18     5 1   
    30    19    21 1   
    31    22    24 ar  
    32    22     7 ar  
    33    24     8 ar  
    34    13     5 1   
    35     5    12 2   
    36    21     7 1   
    37     7    10 ar  
    38     8     9 ar  
    39    10     9 ar  
    40    10    23 1   
    41     3    36 1   
    42     3    37 1   
    43     3    38 1   
    44     6    39 1   
    45     8    40 1   
    46     9    41 1   
    47    11    42 1   
    48    11    43 1   
    49    13    44 1   
    50    16    45 1   
    51    21    46 1   
    52    22    47 1   
    53    26    48 1   
    54    27    49 1   
    55    60    50 1   
    56    60    51 1   
    57    28    52 1   
    58    28    53 1   
    59    30    54 1   
    60    33    55 1   
    61    34    56 1   
    62    35    57 1   
    63    59    28 1   
@<TRIPOS>SUBSTRUCTURE
     1 2C3         1 TEMP              0 ****  ****    0 ROOT
