@<TRIPOS>MOLECULE
2C4
   40    42     1     0     0
SMALL
bcc


@<TRIPOS>ATOM
      1 N3           0.0000     0.0000     0.0000 nb         1 2C4      -0.729000
      2 C4           1.3270     0.0000     0.0000 ca         1 2C4       0.891300
      3 C6           1.1730     0.0010    -2.3670 c3         1 2C4       0.257700
      4 C8           1.4360    -0.0010     2.3000 ca         1 2C4       0.433200
      5 C10          1.5600    -0.0030     4.6600 c          1 2C4       0.620700
      6 C13         -0.6500    -0.0030     3.5810 cc         1 2C4       0.108800
      7 C17         -0.4650     0.0190     8.4370 ca         1 2C4      -0.091400
      8 C20         -1.6870    -0.1960    10.9230 ca         1 2C4      -0.067000
      9 C21         -0.3620    -0.5520    10.7710 ca         1 2C4      -0.101000
     10 C22          0.2490    -0.4510     9.5350 ca         1 2C4      -0.047600
     11 O11          2.2280    -0.0040     5.6780 o          1 2C4      -0.688500
     12 N9           2.1680    -0.0020     3.4590 ns         1 2C4      -0.010400
     13 N7           2.0380     0.0000     1.1150 nb         1 2C4      -0.687000
     14 O5           1.9780     0.0010    -1.1850 os         1 2C4      -0.402100
     15 C2          -0.6840    -0.0010     1.1290 ca         1 2C4       0.566200
     16 C1           0.0240    -0.0010     2.3420 ca         1 2C4      -0.437400
     17 C12          0.0960    -0.0030     4.7480 cd         1 2C4      -0.309400
     18 C14         -0.5710    -0.0050     6.0600 c          1 2C4       0.610300
     19 O15         -1.7810    -0.1170     6.1270 o          1 2C4      -0.653100
     20 N16          0.1570     0.1180     7.1870 ns         1 2C4      -0.047100
     21 C18         -1.7940     0.3840     8.5800 ca         1 2C4      -0.054000
     22 Cl2          1.9120    -0.9140     9.3510 cl         1 2C4      -0.008400
     23 C19         -2.4120     0.2770     9.8270 ca         1 2C4      -0.131600
     24 O25         -4.4570     1.0760     9.0330 o          1 2C4      -0.580000
     25 O26         -4.4220     0.5610    11.1930 os         1 2C4      -0.418900
     26 C27         -5.8160     0.9590    11.2760 c3         1 2C4       0.270700
     27 H1           0.5470     0.8850    -2.3790 h1         1 2C4       0.005367
     28 H2           1.8140     0.0010    -3.2410 h1         1 2C4       0.005367
     29 H3           0.5480    -0.8840    -2.3790 h1         1 2C4       0.005367
     30 H4          -1.7330    -0.0030     3.6190 ha         1 2C4       0.137000
     31 H5          -2.1620    -0.2770    11.8940 ha         1 2C4       0.119000
     32 H6           0.1990    -0.9190    11.6220 ha         1 2C4       0.117000
     33 H7           3.1680    -0.0010     3.4120 hn         1 2C4       0.191500
     34 H8          -1.7670    -0.0010     1.1200 h4         1 2C4      -0.005900
     35 H9           1.1360     0.3210     7.1300 hn         1 2C4       0.231500
     36 H10         -2.3520     0.7500     7.7270 ha         1 2C4       0.181000
     37 H11         -5.9110     2.0000    10.9920 h1         1 2C4       0.000367
     38 H12         -6.4070     0.3460    10.6060 h1         1 2C4       0.000367
     39 H13         -6.1680     0.8280    12.2920 h1         1 2C4       0.000367
     40 C24         -3.8280     0.6650     9.9880 c          1 2C4       0.716700
@<TRIPOS>BOND
     1     1     2 ar  
     2     1    15 ar  
     3     2    13 ar  
     4     2    14 1   
     5     3    14 1   
     6     3    27 1   
     7     3    28 1   
     8     3    29 1   
     9     4    12 1   
    10     4    13 ar  
    11     4    16 ar  
    12     5    11 2   
    13     5    12 1   
    14     5    17 1   
    15     6    16 1   
    16     6    17 2   
    17     6    30 1   
    18     7    10 ar  
    19     7    20 1   
    20     7    21 ar  
    21     8     9 ar  
    22     8    23 ar  
    23     8    31 1   
    24     9    10 ar  
    25     9    32 1   
    26    10    22 1   
    27    12    33 1   
    28    15    16 ar  
    29    15    34 1   
    30    17    18 1   
    31    18    19 2   
    32    18    20 1   
    33    20    35 1   
    34    21    23 ar  
    35    21    36 1   
    36    23    40 1   
    37    24    40 2   
    38    25    26 1   
    39    25    40 1   
    40    26    37 1   
    41    26    38 1   
    42    26    39 1   
@<TRIPOS>SUBSTRUCTURE
     1 2C4         1 TEMP              0 ****  ****    0 ROOT
