@<TRIPOS>MOLECULE
molecule
   50    53     1     0     0
SMALL
bcc


@<TRIPOS>ATOM
      1 O2           0.0000     0.0000     0.0000 os         1 2C5      -0.413600
      2 C38          1.4280     0.0000     0.0000 c3         1 2C5       0.265700
      3 C40          1.9320     0.0000     1.4210 ca         1 2C5      -0.026300
      4 C43          3.0880    -0.6880     1.7420 ca         1 2C5      -0.123000
      5 C44          3.5540    -0.6930     3.0400 ca         1 2C5      -0.103500
      6 C45          2.8550    -0.0000     4.0320 ca         1 2C5      -0.048000
      7 C46          1.6890     0.6920     3.7010 ca         1 2C5      -0.103500
      8 C47          1.2370     0.6920     2.3970 ca         1 2C5      -0.123000
      9 C52         -0.9710    -6.0160    -0.2550 ca         1 2C5      -0.080000
     10 C53         -1.7320    -5.4380    -1.5240 ca         1 2C5      -0.048600
     11 Cl1         -1.5780    -6.6490    -2.5800 cl         1 2C5      -0.046400
     12 C65          3.3320    -0.0010     5.3810 cg         1 2C5       0.232800
     13 C7          -1.9620    -4.0730    -1.7560 ca         1 2C5      -0.083000
     14 N1           3.7070     0.0180     6.4540 n1         1 2C5      -0.356800
     15 C2          -0.5190    -4.7670     0.7070 ca         1 2C5      -0.167000
     16 C3          -1.6160    -3.0420    -1.0100 cp         1 2C5      -0.063000
     17 C4          -0.8170    -3.3590     0.3600 ca         1 2C5      -0.116000
     18 C1          -0.4140    -0.6840    -1.1840 c3         1 2C5       0.054100
     19 N3           3.1790     2.6170    -1.8280 nc         1 2C5      -0.706000
     20 C10          3.1220     1.3770    -1.3210 cc         1 2C5       0.330200
     21 C12          1.9300     1.2310    -0.7100 cd         1 2C5      -0.291900
     22 N4           1.2580     2.4140    -0.8660 na         1 2C5      -0.139900
     23 C5           2.0670     3.2440    -1.5590 cd         1 2C5       0.382400
     24 C15         -0.0840     2.7230    -0.3690 c3         1 2C5      -0.024400
     25 N2          -2.5730     0.3080    -1.7460 nb         1 2C5      -0.687000
     26 C11         -1.9180    -0.7200    -1.2450 ca         1 2C5       0.451600
     27 C13         -2.5980    -1.8420    -0.7750 cp         1 2C5      -0.144300
     28 C14         -3.9920    -1.8650    -0.8310 ca         1 2C5      -0.038000
     29 C17         -4.6490    -0.7540    -1.3700 ca         1 2C5      -0.132300
     30 C6          -3.8900     0.3290    -1.8240 ca         1 2C5       0.561300
     31 C9          -6.0100    -1.0040    -1.6030 cg         1 2C5       0.245800
     32 N5          -7.0760    -0.8100    -1.3740 n1         1 2C5      -0.331800
     33 Cl2         -4.6880     1.7150    -2.4960 cl         1 2C5      -0.126000
     34 HC38         1.7890    -0.8840    -0.5110 h1         1 2C5       0.071700
     35 HC43         4.0610    -0.8000     1.2790 ha         1 2C5       0.159000
     36 HC44         4.4260    -1.1280     3.5130 ha         1 2C5       0.147500
     37 HC46         1.3180     1.3840     4.4470 ha         1 2C5       0.147500
     38 HC47         0.1970     0.9760     2.5010 ha         1 2C5       0.159000
     39 HC52        -0.7060    -7.0340     0.0030 ha         1 2C5       0.183000
     40 HC7         -2.2740    -3.9260    -2.7830 ha         1 2C5       0.139000
     41 HC2         -0.2440    -4.9520     1.7380 ha         1 2C5       0.141000
     42 HC4         -0.7150    -2.6020     1.1280 ha         1 2C5       0.158000
     43 HC11        -0.2920     0.0780    -1.9450 h1         1 2C5       0.090700
     44 HC12         0.0140    -1.6790    -1.1540 h1         1 2C5       0.090700
     45 HC10         3.7690     0.5210    -1.1690 h4         1 2C5       0.035100
     46 HC5          2.1370     4.2650    -1.9140 h5         1 2C5       0.087100
     47 H151        -0.1280     2.9980     0.6780 h1         1 2C5       0.074700
     48 H152        -0.3720     1.6790    -0.3340 h1         1 2C5       0.074700
     49 H153        -0.7690     3.2210    -1.0440 h1         1 2C5       0.074700
     50 HC14        -4.4870    -2.8280    -0.8350 ha         1 2C5       0.165000
@<TRIPOS>BOND
     1     1     2 1
     2     1    18 1
     3     2     3 1
     4     2    21 1
     5     2    34 1
     6     3     4 ar
     7     3     8 ar
     8     4     5 ar
     9     4    35 1
    10     5     6 ar
    11     5    36 1
    12     6     7 ar
    13     6    12 1
    14     7     8 ar
    15     7    37 1
    16     8    38 1
    17     9    10 ar
    18     9    15 ar
    19     9    39 1
    20    10    11 1
    21    10    13 ar
    22    12    14 3
    23    13    16 ar
    24    13    40 1
    25    15    17 ar
    26    15    41 1
    27    16    17 ar
    28    16    27 1
    29    17    42 1
    30    18    26 1
    31    18    43 1
    32    18    44 1
    33    19    20 1
    34    19    23 2
    35    20    21 2
    36    20    45 1
    37    21    22 1
    38    22    23 1
    39    22    24 1
    40    23    46 1
    41    24    47 1
    42    24    48 1
    43    24    49 1
    44    25    26 ar
    45    25    30 ar
    46    26    27 ar
    47    27    28 ar
    48    28    29 ar
    49    28    50 1
    50    29    30 ar
    51    29    31 1
    52    30    33 1
    53    31    32 3
@<TRIPOS>SUBSTRUCTURE
     1 2C5         1 TEMP              0 ****  ****    0 ROOT
