@<TRIPOS>MOLECULE
2C6
   60    64     1     0     0
SMALL
bcc


@<TRIPOS>ATOM
      1 N1         -0.3960   -1.9460    1.1950 n         1 2C6     -0.484400
      2 C9          0.9910   -2.0400    0.9400 c         1 2C6      0.714100
      3 O1          1.3810   -2.8990    0.1350 o         1 2C6     -0.590500
      4 C10         1.8480   -1.0890    1.6710 ca        1 2C6     -0.179600
      5 C11         3.2350   -1.1060    1.4820 ca        1 2C6     -0.055000
      6 C15         4.0360   -0.2060    2.1740 ca        1 2C6     -0.137000
      7 C16         3.4580    0.7140    3.0570 ca        1 2C6     -0.087000
      8 C17         2.0850    0.7480    3.2580 ca        1 2C6     -0.121000
      9 C7          1.2500   -0.1590    2.5640 ca        1 2C6      0.175400
     10 N2         -0.1390   -0.1320    2.7620 nc        1 2C6     -0.644100
     11 C8         -0.8750   -0.9960    2.0910 cd        1 2C6      0.506800
     12 S1         -2.6110   -1.0060    2.2990 ss        1 2C6     -0.177300
     13 C18        -7.9640   -0.6550   10.0720 cc        1 2C6      0.405700
     14 N4         -7.2120   -0.2820   11.1260 nd        1 2C6     -0.325000
     15 N5         -7.7110   -0.8140   12.2260 nd        1 2C6     -0.349000
     16 C19        -8.8050   -1.5490   11.9090 cc        1 2C6      0.556900
     17 C20        -9.7210   -2.3320   12.7090 ca        1 2C6     -0.165500
     18 O2         -9.0110   -1.4780   10.5170 os        1 2C6     -0.386800
     19 C21       -10.7930   -3.0070   12.1050 ca        1 2C6     -0.080000
     20 C22       -11.6660   -3.7570   12.8870 ca        1 2C6     -0.135500
     21 C23       -11.4780   -3.8380   14.2680 ca        1 2C6     -0.089000
     22 C24       -10.4130   -3.1680   14.8690 ca        1 2C6     -0.135500
     23 C25        -9.5310   -2.4130   14.0970 ca        1 2C6     -0.080000
     24 C1         -7.8810    1.4850    6.9240 c3        1 2C6     -0.098900
     25 C2         -6.5040    1.0170    6.4390 c3        1 2C6      0.119500
     26 C3         -6.3800   -0.4990    6.6130 c3        1 2C6     -0.098900
     27 C4         -6.5370   -0.8510    8.0790 c3        1 2C6     -0.080400
     28 C5         -7.8770   -0.3620    8.6220 c3        1 2C6     -0.074000
     29 C6         -8.0410    1.1360    8.3900 c3        1 2C6     -0.080400
     30 C12        -2.9140    0.2930    3.4620 c3        1 2C6     -0.032300
     31 C13        -4.4100    0.3010    3.6720 c3        1 2C6     -0.142400
     32 C14        -4.7950    1.3870    4.6340 c         1 2C6      0.548100
     33 O3         -4.0960    2.2440    5.1460 o         1 2C6     -0.390100
     34 N3         -6.2670    1.4370    5.0050 n4        1 2C6     -0.688800
     35 H1         -1.0200   -2.5630    0.7250 hn        1 2C6      0.346500
     36 H2          3.6720   -1.8380    0.7820 ha        1 2C6      0.167000
     37 H3          5.1270   -0.2160    2.0290 ha        1 2C6      0.152000
     38 H4          4.1030    1.4230    3.6000 ha        1 2C6      0.147000
     39 H5          1.6450    1.4770    3.9550 ha        1 2C6      0.150000
     40 H6        -10.9390   -2.9410   11.0160 ha        1 2C6      0.151500
     41 H7        -12.5080   -4.2870   12.4140 ha        1 2C6      0.147500
     42 H8        -12.1710   -4.4330   14.8830 ha        1 2C6      0.147000
     43 H9        -10.2650   -3.2320   15.9580 ha        1 2C6      0.147500
     44 H10        -8.6910   -1.8850   14.5760 ha        1 2C6      0.151500
     45 H11        -7.9870    2.5960    6.8020 hc        1 2C6      0.065450
     46 H12        -8.6900    0.9880    6.3260 hc        1 2C6      0.065450
     47 H13        -5.7020    1.5350    7.0520 hx        1 2C6      0.125700
     48 H14        -7.1680   -1.0240    6.0120 hc        1 2C6      0.065450
     49 H15        -5.3750   -0.8540    6.2600 hc        1 2C6      0.065450
     50 H16        -6.4700   -1.9650    8.1950 hc        1 2C6      0.085950
     51 H17        -5.6990   -0.3990    8.6740 hc        1 2C6      0.085950
     52 H18        -8.7120   -0.9130    8.1010 hc        1 2C6      0.083700
     53 H19        -9.0610    1.4580    8.7300 hc        1 2C6      0.085950
     54 H20        -7.2870    1.7000    9.0030 hc        1 2C6      0.085950
     55 H21        -2.5540    1.2780    3.0690 h1        1 2C6      0.113200
     56 H22        -2.3710    0.1090    4.4230 h1        1 2C6      0.113200
     57 H23        -4.7500   -0.6950    4.0740 hc        1 2C6      0.111700
     58 H24        -4.9360    0.4810    2.6910 hc        1 2C6      0.111700
     59 H25        -6.6040    2.4030    4.9010 hn        1 2C6      0.456300
     60 H32        -6.8070    0.8310    4.3820 hn        1 2C6      0.456300
@<TRIPOS>BOND
     1    1    2 1
     2    1   11 1
     3    1   35 1
     4    2    3 2
     5    2    4 1
     6    4    5 ar
     7    4    9 ar
     8    5    6 ar
     9    5   36 1
    10    6    7 ar
    11    6   37 1
    12    7    8 ar
    13    7   38 1
    14    8    9 ar
    15    8   39 1
    16    9   10 1
    17   10   11 2
    18   11   12 1
    19   12   30 1
    20   13   14 2
    21   13   18 1
    22   13   28 1
    23   14   15 1
    24   15   16 2
    25   16   17 1
    26   16   18 1
    27   17   19 ar
    28   17   23 ar
    29   19   20 ar
    30   19   40 1
    31   20   21 ar
    32   20   41 1
    33   21   22 ar
    34   21   42 1
    35   22   23 ar
    36   22   43 1
    37   23   44 1
    38   24   25 1
    39   24   29 1
    40   24   45 1
    41   24   46 1
    42   25   26 1
    43   25   34 1
    44   25   47 1
    45   26   27 1
    46   26   48 1
    47   26   49 1
    48   27   28 1
    49   27   50 1
    50   27   51 1
    51   28   29 1
    52   28   52 1
    53   29   53 1
    54   29   54 1
    55   30   31 1
    56   30   55 1
    57   30   56 1
    58   31   32 1
    59   31   57 1
    60   31   58 1
    61   32   33 2
    62   32   34 1
    63   34   59 1
    64   34   60 1
@<TRIPOS>SUBSTRUCTURE
     1 2C6         1 TEMP              0 ****  ****    0 ROOT
