@<TRIPOS>MOLECULE
2C7
   46    48     1     0     0
SMALL
bcc


@<TRIPOS>ATOM
      1 CAE          0.0000     0.0000     0.0000 c3         1 2C7      -0.023400
      2 CAA          1.5420     0.0000     0.0000 c3         1 2C7      -0.025900
      3 CAB          2.0970     0.0000     1.3460 c3         1 2C7      -0.029900
      4 CAC          1.7000    -1.2580     2.1450 c3         1 2C7      -0.029900
      5 CAD          0.3020    -1.0710     2.6700 c3         1 2C7      -0.025900
      6 CAG         -0.7640    -1.6760     1.7380 c3         1 2C7      -0.023400
      7 CAF         -0.4790    -1.4050     0.2480 c3         1 2C7      -0.059700
      8 CAH         -1.7620    -1.6390    -0.5520 c3         1 2C7       0.076800
      9 CAI         -2.1850    -3.0790    -0.4110 ce         1 2C7      -0.020300
     10 CAJ         -3.0520    -3.5930     0.4450 cf         1 2C7      -0.070200
     11 SAP         -1.6410    -4.4810    -1.3640 sy         1 2C7       0.931200
     12 OAO         -2.1410    -4.3260    -2.6850 o          1 2C7      -0.544300
     13 OAW         -0.2760    -4.7160    -1.0480 o          1 2C7      -0.544300
     14 CAQ         -2.6060    -5.7380    -0.5650 ca         1 2C7      -0.109500
     15 CAR         -2.7340    -7.0850    -0.7390 ca         1 2C7       0.098000
     16 CAK         -3.3240    -5.0350     0.4130 ca         1 2C7       0.027200
     17 CAL         -4.2000    -5.7840     1.2250 ca         1 2C7      -0.055000
     18 CAM         -4.3280    -7.1400     1.0510 ca         1 2C7      -0.120000
     19 CAS         -3.6010    -7.8080     0.0740 ca         1 2C7       0.007100
     20 OAT         -3.7390    -9.1500    -0.0870 os         1 2C7      -0.317800
     21 SAU         -2.7700    -9.9770     0.7450 s6         1 2C7       1.261400
     22 OAA         -2.9120   -11.3210     0.3080 o          1 2C7      -0.499300
     23 OAN         -1.5300    -9.2810     0.7280 o          1 2C7      -0.499300
     24 NAV         -3.3080    -9.9340     2.3110 nz         1 2C7      -0.176500
     25 HAE         -0.3630     0.3430    -0.9610 hc         1 2C7       0.013950
     26 HAEA        -0.3630     0.6510     0.7860 hc         1 2C7       0.013950
     27 HAA          1.8910     0.8830    -0.5220 hc         1 2C7       0.017450
     28 HAAA         1.8910    -0.8830    -0.5220 hc         1 2C7       0.017450
     29 HAB          3.1770     0.0440     1.2780 hc         1 2C7       0.019700
     30 HABA         1.7370     0.8760     1.8720 hc         1 2C7       0.019700
     31 HAC          1.7310    -2.1250     1.4960 hc         1 2C7       0.019700
     32 HACA         2.3850    -1.3920     2.9740 hc         1 2C7       0.019700
     33 HAD          0.1100    -0.0100     2.7790 hc         1 2C7       0.017450
     34 HADA         0.2280    -1.5460     3.6410 hc         1 2C7       0.017450
     35 HAG         -1.7280    -1.2510     1.9910 hc         1 2C7       0.013950
     36 HAGA        -0.7970    -2.7470     1.8970 hc         1 2C7       0.013950
     37 HAF          0.2820    -2.0970    -0.0920 hc         1 2C7       0.053700
     38 HAH         -1.5820    -1.4160    -1.5970 hc         1 2C7       0.032700
     39 HAHA        -2.5460    -0.9930    -0.1740 hc         1 2C7       0.032700
     40 HAJ         -3.6710    -2.9380     1.0470 ha         1 2C7       0.127000
     41 HAR         -2.1600    -7.5910    -1.5060 ha         1 2C7       0.135000
     42 HAL         -4.7770    -5.2840     1.9930 ha         1 2C7       0.126000
     43 HAM         -5.0050    -7.6980     1.6880 ha         1 2C7       0.090000
     44 HNAV        -4.3090    -9.9450     2.3210 hn         1 2C7       0.323133
     45 HNAA        -2.9790    -9.1000     2.7540 hn         1 2C7       0.323133
     46 HAV3        -2.9610   -10.7330     2.8050 hn         1 2C7       0.323133
@<TRIPOS>BOND
     1     1     2 1   
     2     1     7 1   
     3     1    25 1   
     4     1    26 1   
     5     2     3 1   
     6     2    27 1   
     7     2    28 1   
     8     3     4 1   
     9     3    29 1   
    10     3    30 1   
    11     4     5 1   
    12     4    31 1   
    13     4    32 1   
    14     5     6 1   
    15     5    33 1   
    16     5    34 1   
    17     6     7 1   
    18     6    35 1   
    19     6    36 1   
    20     7     8 1   
    21     7    37 1   
    22     8     9 1   
    23     8    38 1   
    24     8    39 1   
    25     9    10 2   
    26     9    11 1   
    27    10    16 1   
    28    10    40 1   
    29    11    12 2   
    30    11    13 2   
    31    11    14 1   
    32    14    15 ar  
    33    14    16 ar  
    34    15    19 ar  
    35    15    41 1   
    36    16    17 ar  
    37    17    18 ar  
    38    17    42 1   
    39    18    19 ar  
    40    18    43 1   
    41    19    20 1   
    42    20    21 1   
    43    21    22 2   
    44    21    23 2   
    45    21    24 1   
    46    24    44 1   
    47    24    45 1   
    48    24    46 1   
@<TRIPOS>SUBSTRUCTURE
     1 2C7         1 TEMP              0 ****  ****    0 ROOT
