@<TRIPOS>MOLECULE
2C8
   52    56     1     0     0
SMALL
bcc


@<TRIPOS>ATOM
      1 N1          0.3320    0.6450    0.2790 n         1 2C8     -0.498400
      2 C1          1.7270    0.5280    0.4030 c         1 2C8      0.709100
      3 O1          2.4420    0.8250   -0.5700 o         1 2C8     -0.618500
      4 C2          2.2200    0.0520    1.7080 ca        1 2C8     -0.188600
      5 C3          3.5950   -0.0980    1.9330 ca        1 2C8     -0.058000
      6 C4          4.0460   -0.5460    3.1650 ca        1 2C8     -0.152000
      7 C5          3.1290   -0.8470    4.1810 ca        1 2C8     -0.093000
      8 C6          1.7650   -0.7050    3.9790 ca        1 2C8     -0.125000
      9 C7          1.2790   -0.2490    2.7290 ca        1 2C8      0.184400
     10 N2         -0.0990   -0.1050    2.5230 nc        1 2C8     -0.637100
     11 C8         -0.5180    0.3230    1.3460 cd        1 2C8      0.494900
     12 C9         -2.0000    0.5000    1.0630 c3        1 2C8     -0.113700
     13 C10        -2.8830    0.1380    2.2370 c3        1 2C8     -0.144400
     14 C11        -4.3450    0.3440    1.8640 c         1 2C8      0.663100
     15 O2         -4.6780    0.7550    0.7390 o         1 2C8     -0.587100
     16 N3         -5.2610    0.0420    2.8650 n         1 2C8     -0.470100
     17 C12        -6.6580    0.1350    2.8080 ca        1 2C8      0.096600
     18 C13        -7.4010   -0.2330    3.9600 ca        1 2C8     -0.182500
     19 C14        -8.7850   -0.1620    3.9590 ca        1 2C8     -0.059000
     20 C15        -7.3610    0.5740    1.6650 ca        1 2C8     -0.182500
     21 C16        -8.7500    0.6420    1.6770 ca        1 2C8     -0.059000
     22 C18       -10.9170    0.3520    2.8150 cc        1 2C8      0.524900
     23 C17        -9.4750    0.2760    2.8190 ca        1 2C8     -0.170500
     24 N4        -11.8110    0.7330    1.8730 nd        1 2C8     -0.348000
     25 N5        -13.0310    0.6230    2.3610 nd        1 2C8     -0.343000
     26 C19       -12.9660    0.1670    3.6330 cc        1 2C8      0.512900
     27 C20       -13.9820   -0.1310    4.6190 ca        1 2C8     -0.137500
     28 O3        -11.6140   -0.0250    3.9790 os        1 2C8     -0.393800
     29 C21       -15.3360    0.0540    4.2980 ca        1 2C8     -0.089000
     30 C22       -16.3140   -0.2330    5.2480 ca        1 2C8     -0.138000
     31 C23       -15.9540   -0.7010    6.5120 ca        1 2C8     -0.107000
     32 C24       -14.6080   -0.8840    6.8310 ca        1 2C8     -0.138000
     33 C25       -13.6210   -0.6010    5.8900 ca        1 2C8     -0.089000
     34 H1         -0.0510    0.9620   -0.5830 hn        1 2C8      0.339500
     35 H2          4.2980    0.1450    1.1190 ha        1 2C8      0.160000
     36 H3          5.1240   -0.6660    3.3480 ha        1 2C8      0.141000
     37 H4          3.4990   -1.2020    5.1560 ha        1 2C8      0.138000
     38 H5          1.0560   -0.9450    4.7860 ha        1 2C8      0.150000
     39 H6         -2.1870    1.5700    0.7750 hc        1 2C8      0.084700
     40 H7         -2.2780   -0.1390    0.1800 hc        1 2C8      0.084700
     41 H8         -2.6320    0.7790    3.1240 hc        1 2C8      0.086700
     42 H9         -2.7210   -0.9330    2.5290 hc        1 2C8      0.086700
     43 H10        -4.8880   -0.2810    3.7320 hn        1 2C8      0.320500
     44 H11        -6.8870   -0.5810    4.8690 ha        1 2C8      0.157500
     45 H12        -9.3500   -0.4500    4.8600 ha        1 2C8      0.155000
     46 H13        -6.8220    0.8690    0.7490 ha        1 2C8      0.157500
     47 H14        -9.2800    0.9880    0.7730 ha        1 2C8      0.155000
     48 H15       -15.6240    0.4230    3.3010 ha        1 2C8      0.152000
     49 H16       -17.3760   -0.0890    4.9970 ha        1 2C8      0.139000
     50 H17       -16.7310   -0.9260    7.2580 ha        1 2C8      0.136000
     51 H18       -14.3230   -1.2540    7.8270 ha        1 2C8      0.139000
     52 H19       -12.5580   -0.7450    6.1380 ha        1 2C8      0.152000
@<TRIPOS>BOND
     1    1    2 1
     2    1   11 1
     3    1   34 1
     4    2    3 2
     5    2    4 1
     6    4    5 ar
     7    4    9 ar
     8    5    6 ar
     9    5   35 1
    10    6    7 ar
    11    6   36 1
    12    7    8 ar
    13    7   37 1
    14    8    9 ar
    15    8   38 1
    16    9   10 1
    17   10   11 2
    18   11   12 1
    19   12   13 1
    20   12   39 1
    21   12   40 1
    22   13   14 1
    23   13   41 1
    24   13   42 1
    25   14   15 2
    26   14   16 1
    27   16   17 1
    28   16   43 1
    29   17   18 ar
    30   17   20 ar
    31   18   19 ar
    32   18   44 1
    33   19   23 ar
    34   19   45 1
    35   20   21 ar
    36   20   46 1
    37   21   23 ar
    38   21   47 1
    39   22   23 1
    40   22   24 2
    41   22   28 1
    42   24   25 1
    43   25   26 2
    44   26   27 1
    45   26   28 1
    46   27   29 ar
    47   27   33 ar
    48   29   30 ar
    49   29   48 1
    50   30   31 ar
    51   30   49 1
    52   31   32 ar
    53   31   50 1
    54   32   33 ar
    55   32   51 1
    56   33   52 1
@<TRIPOS>SUBSTRUCTURE
     1 2C8         1 TEMP              0 ****  ****    0 ROOT
