@<TRIPOS>MOLECULE
molecule
   19    19     1     0     0
SMALL
bcc


@<TRIPOS>ATOM
      1 CAA          0.0000     0.0000     0.0000 c3         1 2C9      -0.035800
      2 CAG          1.5060     0.0000     0.0000 ca         1 2C9      -0.093300
      3 CAE          2.1970     0.0000     1.1980 ca         1 2C9      -0.133000
      4 CAD          3.5800     0.0020     1.2030 ca         1 2C9      -0.130000
      5 CAF          4.2800     0.0030     0.0100 ca         1 2C9      -0.148000
      6 CAH          3.5950     0.0020    -1.1950 ca         1 2C9       0.149600
      7 NAB          4.3020     0.0030    -2.4040 nv         1 2C9      -0.984200
      8 CAI          2.2000    -0.0040    -1.2000 ca         1 2C9       0.147600
      9 NAC          1.5020    -0.0050    -2.4140 nv         1 2C9      -0.981200
     10 H1          -0.3610     0.8830    -0.5140 hc         1 2C9       0.040367
     11 H2          -0.3610    -0.8860    -0.5080 hc         1 2C9       0.040367
     12 H3          -0.3610     0.0030     1.0210 hc         1 2C9       0.040367
     13 H4           1.6540    -0.0010     2.1350 ha         1 2C9       0.128000
     14 H5           4.1160     0.0020     2.1440 ha         1 2C9       0.127000
     15 H6           5.3630     0.0040     0.0180 ha         1 2C9       0.133000
     16 H7           4.5680     0.8700    -2.8270 hn         1 2C9       0.424800
     17 H8           4.5720    -0.8640    -2.8260 hn         1 2C9       0.424800
     18 H9           1.2660    -0.8720    -2.8540 hn         1 2C9       0.424800
     19 H10          1.2660     0.8610    -2.8560 hn         1 2C9       0.424800
@<TRIPOS>BOND
     1     5     4 ar
     2     5     6 ar
     3     4     3 ar
     4     7     6 1
     5     6     8 ar
     6     3     2 ar
     7     8     2 ar
     8     8     9 1
     9     2     1 1
    10     1    10 1
    11     1    11 1
    12     1    12 1
    13     3    13 1
    14     4    14 1
    15     5    15 1
    16     7    16 1
    17     7    17 1
    18     9    18 1
    19     9    19 1
@<TRIPOS>SUBSTRUCTURE
     1 2C9         1 TEMP              0 ****  ****    0 ROOT
