@<TRIPOS>MOLECULE
2C9
   19    19     1     0     0
SMALL
bcc


@<TRIPOS>ATOM
      1 CAA          0.0000     0.0000     0.0000 c3         1 2C9       0.069200
      2 CAG          1.5060     0.0000     0.0000 ca         1 2C9      -0.094300
      3 CAE          2.1970     0.0000     1.1980 ca         1 2C9      -0.103000
      4 CAD          3.5800     0.0020     1.2030 ca         1 2C9      -0.097000
      5 CAF          4.2800     0.0030     0.0100 ca         1 2C9      -0.119000
      6 CAH          3.5950     0.0020    -1.1950 ca         1 2C9       0.020600
      7 NAB          4.3020     0.0030    -2.4040 nv         1 2C9      -0.555200
      8 CAI          2.2000    -0.0040    -1.2000 ca         1 2C9       0.019600
      9 NAC          1.5020    -0.0050    -2.4140 nv         1 2C9      -0.552200
     10 H1          -0.3610     0.8830    -0.5140 hc         1 2C9       0.006367
     11 H2          -0.3610    -0.8860    -0.5080 hc         1 2C9       0.006367
     12 H3          -0.3610     0.0030     1.0210 hc         1 2C9       0.006367
     13 H4           1.6540    -0.0010     2.1350 ha         1 2C9       0.104000
     14 H5           4.1160     0.0020     2.1440 ha         1 2C9       0.100000
     15 H6           5.3630     0.0040     0.0180 ha         1 2C9       0.106000
     16 H7           4.5680     0.8700    -2.8270 hn         1 2C9       0.270800
     17 H8           4.5720    -0.8640    -2.8260 hn         1 2C9       0.270800
     18 H9           1.2660    -0.8720    -2.8540 hn         1 2C9       0.270800
     19 H10          1.2660     0.8610    -2.8560 hn         1 2C9       0.270800
@<TRIPOS>BOND
     1     1     2 1   
     2     1    10 1   
     3     1    11 1   
     4     1    12 1   
     5     2     3 ar  
     6     2     8 ar  
     7     3     4 ar  
     8     3    13 1   
     9     4     5 ar  
    10     4    14 1   
    11     5     6 ar  
    12     5    15 1   
    13     6     7 1   
    14     6     8 ar  
    15     7    16 1   
    16     7    17 1   
    17     8     9 1   
    18     9    18 1   
    19     9    19 1   
@<TRIPOS>SUBSTRUCTURE
     1 2C9         1 TEMP              0 ****  ****    0 ROOT
