@<TRIPOS>MOLECULE
2CA
   69    65     1     0     0
SMALL
bcc


@<TRIPOS>ATOM
      1 S1         -0.6840    0.1000    0.0420 s6        1 2CA      2.899000
      2 O1         -0.7390   -1.2110   -0.5020 o         1 2CA     -0.942500
      3 O2         -1.4850    1.0460   -0.5900 o         1 2CA     -0.942500
      4 O5         -2.0850   -7.2000    2.4900 o         1 2CA     -0.508000
      5 O6         -2.4920   -4.5520    4.8650 os        1 2CA     -0.090000
      6 N2         -1.3570   -3.9290   -1.3550 n4        1 2CA     -0.069000
      7 N3         -1.6890   -4.9520    2.1930 n         1 2CA     -0.361000
      8 N4         -1.1450   -1.3040    2.2880 n3        1 2CA     -0.101000
      9 C8         -1.9710   -4.7470   -0.2500 c2        1 2CA      0.226000
     10 C9         -1.0580   -5.1170    0.9260 c3        1 2CA     -0.019000
     11 C10        -3.2750   -9.8280    2.2360 c3        1 2CA     -0.251000
     12 C11        -2.3240   -9.4340    3.2570 c2        1 2CA      0.338000
     13 C12        -4.7060   -9.9070    2.7090 c3        1 2CA     -0.227000
     14 C13        -0.9140   -9.7390    3.1690 c3        1 2CA     -0.320000
     15 C15        -2.8400   -5.7340    4.1930 c2        1 2CA     -0.142000
     16 C16        -3.7950   -6.4280    4.9210 c2        1 2CA     -0.094000
     17 C17        -5.0210   -6.0220    7.1700 c3        1 2CA     -0.207000
     18 C18        -5.1190   -7.4050    7.5800 c1        1 2CA     -0.003000
     19 C19        -2.3530   -2.3080    6.6970 c1        1 2CA      0.311000
     20 C20        -3.0610   -3.4080    6.9020 c2        1 2CA     -0.457000
     21 C21        -3.2520   -4.5290    6.0410 c2        1 2CA      0.124000
     22 C22        -4.0640   -5.6610    6.1100 c2        1 2CA     -0.174000
     23 C23        -1.1600   -0.0000    1.6980 c2        1 2CA     -0.812000
     24 C24        -1.5810    1.0900    2.3720 c2        1 2CA      0.017000
     25 C25        -4.5950   -1.8420    1.5640 c1        1 2CA     -0.075000
     26 C26        -3.4350   -1.9330    1.8670 c1        1 2CA     -0.250000
     27 C27        -2.1300   -2.1640    2.3200 c1        1 2CA     -0.057000
     28 C01        -0.4640   -4.7390   -2.1760 c2        1 2CA     -0.229000
     29 C02        -0.6210   -4.9080   -3.4930 c2        1 2CA     -0.094000
     30 C03         2.4300   -6.1630   -0.4110 c3        1 2CA     -0.275000
     31 C04         1.9760    0.9510    0.2260 c1        1 2CA      0.423000
     32 N05         0.8330    0.5710    0.1710 n2        1 2CA     -0.926000
     33 C06        -4.5080   -1.3320   -5.0300 c2        1 2CA     -0.371000
     34 C07        -3.7130   -2.0900   -4.3350 c1        1 2CA      0.265000
     35 HN2        -2.1090   -3.5160   -1.9350 hn        1 2CA      0.290000
     36 HN3        -1.8580   -3.9800    2.5180 hn        1 2CA      0.327000
     37 HC9        -0.1270   -4.4790    0.9030 h1        1 2CA      0.143000
     38 H101       -2.9700  -10.7870    1.7250 hc        1 2CA      0.193500
     39 H102       -3.1840   -9.0140    1.4340 hc        1 2CA      0.193500
     40 H11        -0.3410   -8.7630    3.0960 hc        1 2CA      0.178333
     41 H121       -4.8330  -10.7280    3.4570 hc        1 2CA      0.110667
     42 H122       -5.3760  -10.1250    1.8390 hc        1 2CA      0.110667
     43 H123       -2.6950   -8.8940    4.1550 ha        1 2CA      0.175000
     44 H131       -5.0330   -8.9440    3.1710 hc        1 2CA      0.110667
     45 H132       -0.6380  -10.3810    2.2940 hc        1 2CA      0.178333
     46 H133       -0.5540  -10.2330    4.1190 hc        1 2CA      0.178333
     47 H16        -4.2830   -7.3620    4.6490 ha        1 2CA      0.160000
     48 H17        -6.0710   -5.7140    6.8600 hc        1 2CA      0.173000
     49 H18        -4.8090   -5.4280    8.1130 hc        1 2CA      0.173000
     50 H19        -4.4670   -8.1240    7.0570 ha        1 2CA      0.020000
     51 H20        -3.5940   -3.4770    7.8830 ha        1 2CA      0.228000
     52 H24        -1.6070    2.0840    1.8900 ha        1 2CA      0.164500
     53 H25        -1.9350    1.0670    3.4160 ha        1 2CA      0.164500
     54 H26        -5.6240   -1.7670    1.2970 ha        1 2CA      0.247000
     55 H27        -0.2940   -1.5460    2.7570 hn        1 2CA      0.263000
     56 H01         0.3740   -5.1740   -1.5930 hx        1 2CA      0.183000
     57 H021       -1.4410   -4.4650   -4.0850 ha        1 2CA      0.176000
     58 H022        2.1690   -6.8930   -1.2080 hc        1 2CA      0.069250
     59 H031        1.5480   -5.9930    0.2470 hc        1 2CA      0.069250
     60 H032        3.2700   -6.5690    0.1960 hc        1 2CA      0.069250
     61 H041        0.1010   -5.5160   -4.0630 ha        1 2CA      0.176000
     62 H042        2.7450   -5.2020   -0.8720 hc        1 2CA      0.069250
     63 H061       -5.4820   -1.6910   -5.3930 ha        1 2CA      0.202500
     64 H062       -4.2390   -0.3000   -5.2960 ha        1 2CA      0.202500
     65 O08        -2.9760   -2.7920   -3.6930 o         1 2CA     -0.292000
     66 O4         -3.1440   -5.0570   -0.3880 o         1 2CA     -0.174000
     67 H22        -0.8120   -3.1470   -0.9470 hn        1 2CA      0.290000
     68 H32        -0.7660   -6.1990    0.7580 h1        1 2CA      0.143000
     69 C14        -2.1920   -6.0100    2.9090 c2        1 2CA      0.429000
@<TRIPOS>BOND
     1    1    2 1
     2    1    3 1
     3    1   23 1
     4    1   32 1
     5    4   69 1
     6    5   15 1
     7    5   21 1
     8    6    9 1
     9    6   28 1
    10    6   35 1
    11    6   67 1
    12    7   10 1
    13    7   36 1
    14    7   69 1
    15    8   23 1
    16    8   27 1
    17    8   55 1
    18    9   10 1
    19    9   66 1
    20   10   37 1
    21   10   68 1
    22   11   12 1
    23   11   13 1
    24   11   38 1
    25   11   39 1
    26   12   14 1
    27   12   43 1
    28   13   41 1
    29   13   42 1
    30   13   44 1
    31   14   40 1
    32   14   45 1
    33   14   46 1
    34   15   16 1
    35   15   69 1
    36   16   22 1
    37   16   47 1
    38   17   18 1
    39   17   22 1
    40   17   48 1
    41   17   49 1
    42   18   50 1
    43   19   20 1
    44   20   21 1
    45   20   51 1
    46   21   22 1
    47   23   24 1
    48   24   52 1
    49   24   53 1
    50   25   26 1
    51   25   54 1
    52   26   27 1
    53   28   29 1
    54   28   56 1
    55   29   57 1
    56   29   61 1
    57   30   58 1
    58   30   59 1
    59   30   60 1
    60   30   62 1
    61   31   32 1
    62   33   34 1
    63   33   63 1
    64   33   64 1
    65   34   65 1
@<TRIPOS>SUBSTRUCTURE
     1 2CA         1 TEMP              0 ****  ****    0 ROOT
