@<TRIPOS>MOLECULE
2CB
   57    59     1     0     0
SMALL
bcc


@<TRIPOS>ATOM
      1 CAN          0.0000     0.0000     0.0000 c3         1 2CB       0.149300
      2 CAL          1.5300     0.0000     0.0000 c3         1 2CB       0.155800
      3 NAY          2.0170     0.0000     1.3870 n3         1 2CB      -0.549600
      4 CAC          3.4830    -0.0770     1.4310 c3         1 2CB       0.190100
      5 CAM          1.5290     1.1810     2.1140 c3         1 2CB       0.155800
      6 CAO         -0.0020     1.1810     2.1130 c3         1 2CB       0.149300
      7 NAZ         -0.4880     1.1810     0.7260 n3         1 2CB      -0.540600
      8 CAK         -1.9540     1.2570     0.6830 c3         1 2CB       0.146800
      9 CAJ         -2.4100     2.6130     1.2260 c3         1 2CB       0.147800
     10 NAR         -3.8740     2.6880     1.1820 nu         1 2CB      -0.499900
     11 CAU         -4.5230     3.8340     1.6260 ca         1 2CB       0.560200
     12 CAG         -3.7790     4.9050     2.1120 ca         1 2CB      -0.347300
     13 CAH         -4.4390     6.0380     2.5510 ca         1 2CB       0.086000
     14 NAP         -5.8450     3.8980     1.5800 nb         1 2CB      -0.683000
     15 CAI         -6.5010     4.9670     1.9920 ca         1 2CB       0.563200
     16 CAV         -5.8260     6.0630     2.4910 ca         1 2CB      -0.349800
     17 SBB         -6.7150     7.4820     3.0380 sy         1 2CB       1.040200
     18 OAE         -8.0560     7.0600     3.2470 o          1 2CB      -0.589800
     19 OAF         -5.9230     8.0850     4.0520 o          1 2CB      -0.589800
     20 NAS         -6.7540     8.5540     1.7760 nu         1 2CB      -0.359500
     21 CAX         -7.4760     8.2400     0.6080 cc         1 2CB      -0.185700
     22 CAW         -6.9430     7.9430    -0.6040 cd         1 2CB      -0.245600
     23 CAB         -5.4760     7.8900    -0.9440 c3         1 2CB       0.099200
     24 NBA         -7.9740     7.7010    -1.4570 na         1 2CB       0.489400
     25 CAD         -7.8570     7.3430    -2.8730 c3         1 2CB       0.026600
     26 NAQ         -9.1680     7.8570    -0.7420 nd         1 2CB      -0.650800
     27 CAT         -8.8710     8.1730     0.4930 cc         1 2CB       0.389600
     28 CAA         -9.8600     8.4250     1.6010 c3         1 2CB      -0.007400
     29 HAN1        -0.3600     0.0310    -1.0210 h1         1 2CB       0.016700
     30 HAN2        -0.3600    -0.8970     0.4890 h1         1 2CB       0.016700
     31 HAL1         1.8900    -0.8860    -0.5080 h1         1 2CB       0.014950
     32 HAL2         1.8900     0.8860    -0.5080 h1         1 2CB       0.014950
     33 HAC1         3.8130    -0.1110     2.4620 h1         1 2CB       0.001033
     34 HAC2         3.9050     0.7960     0.9460 h1         1 2CB       0.001033
     35 HAC3         3.8140    -0.9710     0.9160 h1         1 2CB       0.001033
     36 HAM1         1.8890     1.1490     3.1350 h1         1 2CB       0.014950
     37 HAM2         1.8900     2.0780     1.6260 h1         1 2CB       0.014950
     38 HAO1        -0.3620     0.2940     2.6210 h1         1 2CB       0.016700
     39 HAO2        -0.3620     2.0670     2.6210 h1         1 2CB       0.016700
     40 HAK1        -2.3750     0.4650     1.2910 h1         1 2CB       0.014700
     41 HAK2        -2.2920     1.1450    -0.3400 h1         1 2CB       0.014700
     42 HAJ1        -1.9890     3.4050     0.6180 h1         1 2CB       0.027200
     43 HAJ2        -2.0730     2.7240     2.2490 h1         1 2CB       0.027200
     44 HAR         -4.4060     1.9040     0.8610 hn         1 2CB       0.301800
     45 HAG         -2.6970     4.8520     2.1450 ha         1 2CB       0.128000
     46 HAH         -3.8860     6.8860     2.9370 ha         1 2CB       0.118000
     47 HAI         -7.5830     4.9830     1.9420 h4         1 2CB       0.002100
     48 HAS         -6.2860     9.4350     1.8540 hn         1 2CB       0.334800
     49 HAB1        -5.1710     6.8570    -1.0650 hc         1 2CB       0.010367
     50 HAB2        -4.9030     8.3440    -0.1450 hc         1 2CB       0.010367
     51 HAB3        -5.2990     8.4290    -1.8670 hc         1 2CB       0.010367
     52 HAD1        -7.2720     6.4360    -2.9690 h1         1 2CB       0.020367
     53 HAD2        -8.8450     7.1810    -3.2870 h1         1 2CB       0.020367
     54 HAD3        -7.3670     8.1470    -3.4090 h1         1 2CB       0.020367
     55 HAA1        -9.4070     9.0610     2.3530 hc         1 2CB       0.019033
     56 HAA2       -10.7380     8.9150     1.1970 hc         1 2CB       0.019033
     57 HAA3       -10.1470     7.4820     2.0510 hc         1 2CB       0.019033
@<TRIPOS>BOND
     1     1     2 1   
     2     1     7 1   
     3     1    29 1   
     4     1    30 1   
     5     2     3 1   
     6     2    31 1   
     7     2    32 1   
     8     3     4 1   
     9     3     5 1   
    10     4    33 1   
    11     4    34 1   
    12     4    35 1   
    13     5     6 1   
    14     5    36 1   
    15     5    37 1   
    16     6     7 1   
    17     6    38 1   
    18     6    39 1   
    19     7     8 1   
    20     8     9 1   
    21     8    40 1   
    22     8    41 1   
    23     9    10 1   
    24     9    42 1   
    25     9    43 1   
    26    10    11 1   
    27    10    44 1   
    28    11    12 ar  
    29    11    14 ar  
    30    12    13 ar  
    31    12    45 1   
    32    13    16 ar  
    33    13    46 1   
    34    14    15 ar  
    35    15    16 ar  
    36    15    47 1   
    37    16    17 1   
    38    17    18 2   
    39    17    19 2   
    40    17    20 1   
    41    20    21 1   
    42    20    48 1   
    43    21    22 2   
    44    21    27 1   
    45    22    23 1   
    46    22    24 1   
    47    23    49 1   
    48    23    50 1   
    49    23    51 1   
    50    24    25 1   
    51    24    26 1   
    52    25    52 1   
    53    25    53 1   
    54    25    54 1   
    55    26    27 2   
    56    27    28 1   
    57    28    55 1   
    58    28    56 1   
    59    28    57 1   
@<TRIPOS>SUBSTRUCTURE
     1 2CB         1 TEMP              0 ****  ****    0 ROOT
