@<TRIPOS>MOLECULE
2CC
   42    46     1     0     0
SMALL
bcc


@<TRIPOS>ATOM
      1 CL1        -0.0840    0.0590   -0.6730 cl        1 2CC     -0.165400
      2 C16         1.5520   -0.4450   -0.7070 ca        1 2CC     -0.009600
      3 C15         2.0570   -1.2730    0.2920 ca        1 2CC     -0.133000
      4 C14         3.3960   -1.6820    0.2650 ca        1 2CC     -0.177000
      5 C13         4.2620   -1.2780   -0.7480 ca        1 2CC     -0.060000
      6 C12         3.7890   -0.4440   -1.7560 ca        1 2CC     -0.055800
      7 C17         2.4000   -0.0210   -1.7370 ca        1 2CC     -0.065200
      8 N2          2.1550    0.7540   -2.8760 na        1 2CC     -0.188400
      9 C18         3.3880    0.9280   -3.5410 cc        1 2CC     -0.115100
     10 C11         4.3960    0.1870   -2.9220 cd        1 2CC      0.006600
     11 C10         5.7670    0.1500   -3.3160 cd        1 2CC     -0.132800
     12 C9          6.5250    1.2790   -3.7170 cc        1 2CC     -0.126900
     13 C26         6.1560    2.7290   -3.9570 c         1 2CC      0.934200
     14 O28         5.0190    3.0120   -4.4380 o         1 2CC     -0.845800
     15 O27         7.0270    3.6090   -3.6970 o         1 2CC     -0.845800
     16 N1          7.8380    0.8600   -3.8840 na        1 2CC     -0.126100
     17 C8          7.9610   -0.4990   -3.6260 cc        1 2CC     -0.126900
     18 C29         9.3130   -1.1720   -3.7370 c         1 2CC      0.934200
     19 O32        10.1250   -0.7240   -4.5980 o         1 2CC     -0.845800
     20 O30         9.6030   -2.1240   -2.9530 o         1 2CC     -0.845800
     21 C7          6.6710   -0.9860   -3.2950 cd        1 2CC     -0.132800
     22 C6          6.3480   -2.3600   -3.0840 cd        1 2CC      0.006600
     23 C19         7.1240   -3.2840   -2.3830 cc        1 2CC     -0.115100
     24 N3          6.5210   -4.5590   -2.3920 na        1 2CC     -0.188400
     25 C20         5.3930   -4.4820   -3.2160 ca        1 2CC     -0.065200
     26 C5          5.2170   -3.1010   -3.6300 ca        1 2CC     -0.055800
     27 C4          4.1210   -2.7590   -4.4150 ca        1 2CC     -0.060000
     28 C3          3.2210   -3.7490   -4.7980 ca        1 2CC     -0.177000
     29 C2          3.3870   -5.0840   -4.4060 ca        1 2CC     -0.133000
     30 C1          4.4690   -5.4560   -3.6130 ca        1 2CC     -0.009600
     31 CL2         4.6770   -7.0880   -3.1380 cl        1 2CC     -0.165400
     32 H15         1.4020   -1.6080    1.1080 ha        1 2CC      0.114000
     33 H14         3.7650   -2.3400    1.0620 ha        1 2CC      0.114000
     34 H13         5.3110   -1.6160   -0.7760 ha        1 2CC      0.164000
     35 H18         3.4870    1.6060   -4.4000 h4        1 2CC      0.227000
     36 H19         8.1010   -3.1120   -1.9070 h4        1 2CC      0.227000
     37 H4          3.9770   -1.7060   -4.7110 ha        1 2CC      0.164000
     38 H3          2.3540   -3.4830   -5.4190 ha        1 2CC      0.114000
     39 H2          2.6590   -5.8400   -4.7280 ha        1 2CC      0.114000
     40 HN2         1.4400    1.4340   -2.8990 hn        1 2CC      0.272700
     41 HN1         8.5860    1.4500   -4.1510 hn        1 2CC      0.310700
     42 HN3         7.0420   -5.3920   -2.3000 hn        1 2CC      0.272700
@<TRIPOS>BOND
     1    1    2 1   
     2    2    3 ar  
     3    2    7 ar  
     4    3    4 ar  
     5    3   32 1   
     6    4    5 ar  
     7    4   33 1   
     8    5    6 ar  
     9    5   34 1   
    10    6    7 ar  
    11    6   10 1   
    12    7    8 1   
    13    8    9 1   
    14    8   40 1   
    15    9   10 2   
    16    9   35 1   
    17   10   11 1   
    18   11   12 2   
    19   11   21 1   
    20   12   13 1   
    21   12   16 1   
    22   13   14 1   
    23   13   15 1   
    24   16   17 1   
    25   16   41 1   
    26   17   18 1   
    27   17   21 2   
    28   18   19 1   
    29   18   20 1   
    30   21   22 1   
    31   22   23 2   
    32   22   26 1   
    33   23   24 1   
    34   23   36 1   
    35   24   25 1   
    36   24   42 1   
    37   25   26 ar  
    38   25   30 ar  
    39   26   27 ar  
    40   27   28 ar  
    41   27   37 1   
    42   28   29 ar  
    43   28   38 1   
    44   29   30 ar  
    45   29   39 1   
    46   30   31 1   
@<TRIPOS>SUBSTRUCTURE
     1 2CC         1 TEMP              0 ****  ****    0 ROOT
