@<TRIPOS>MOLECULE
molecule
   42    46     1     0     0
SMALL
bcc


@<TRIPOS>ATOM
      1 Cl1          0.0000     0.0000     0.0000 cl         1 2CC      -0.181400
      2 C16          1.7360     0.0000     0.0000 ca         1 2CC       0.003400
      3 C15          2.4260     0.0000     1.1940 ca         1 2CC      -0.124000
      4 C14          3.8130     0.0000     1.2080 ca         1 2CC      -0.190500
      5 C13          4.5210     0.0010     0.0270 ca         1 2CC      -0.040000
      6 C12          3.8370     0.0020    -1.1870 ca         1 2CC      -0.056300
      7 C17          2.4330    -0.0040    -1.2040 ca         1 2CC      -0.037200
      8 N2           2.0360    -0.0020    -2.5260 na         1 2CC      -0.180900
      9 C18          3.1240     0.0050    -3.3440 cc         1 2CC      -0.113100
     10 C11          4.2610     0.0030    -2.5990 cd         1 2CC       0.050600
     11 C10          5.6490     0.0090    -3.1030 cd         1 2CC      -0.141300
     12 C9           6.4230     1.1310    -3.3790 cc         1 2CC      -0.126400
     13 C26          6.0000     2.5250    -3.2180 c          1 2CC       0.906200
     14 O28          4.8840     2.7780    -2.8080 o          1 2CC      -0.850300
     15 O27          6.8510     3.5270    -3.5220 o          1 2CC      -0.850300
     16 N1           7.6490     0.7100    -3.8290 na         1 2CC      -0.102100
     17 C8           7.6750    -0.6640    -3.8450 cc         1 2CC      -0.126400
     18 C29          8.8070    -1.4950    -4.2610 c          1 2CC       0.906200
     19 O32          9.9530    -0.9170    -4.6750 o          1 2CC      -0.850300
     20 O30          8.7140    -2.7070    -4.2330 o          1 2CC      -0.850300
     21 C7           6.4460    -1.1280    -3.3930 cd         1 2CC      -0.141300
     22 C6           6.0400    -2.5430    -3.2520 cd         1 2CC       0.050600
     23 C19          6.1950    -3.3250    -2.1510 cc         1 2CC      -0.113100
     24 N3           5.7010    -4.5700    -2.3990 na         1 2CC      -0.180900
     25 C20          5.2020    -4.6390    -3.6830 ca         1 2CC      -0.037200
     26 C5           5.3840    -3.3770    -4.2720 ca         1 2CC      -0.056300
     27 C4           4.9630    -3.1500    -5.5820 ca         1 2CC      -0.040000
     28 C3           4.3650    -4.1680    -6.2910 ca         1 2CC      -0.190500
     29 C2           4.1800    -5.4140    -5.7090 ca         1 2CC      -0.124000
     30 C1           4.5990    -5.6550    -4.4180 ca         1 2CC       0.003400
     31 Cl2          4.3610    -7.2200    -3.7050 cl         1 2CC      -0.181400
     32 H15          1.8800    -0.0010     2.1300 ha         1 2CC       0.113000
     33 H14          4.3430     0.0000     2.1530 ha         1 2CC       0.113000
     34 H13          5.6040     0.0010     0.0420 ha         1 2CC       0.148000
     35 H18          3.0900     0.0120    -4.4270 h4         1 2CC       0.168000
     36 H19          6.6450    -3.0070    -1.2180 h4         1 2CC       0.168000
     37 H4           5.1060    -2.1790    -6.0390 ha         1 2CC       0.148000
     38 H3           4.0310    -3.9930    -7.3070 ha         1 2CC       0.113000
     39 H2           3.7090    -6.2070    -6.2770 ha         1 2CC       0.113000
     40 HN2          1.0850    -0.0020    -2.8380 hn         1 2CC       0.279700
     41 HN1          8.4040     1.3080    -4.1010 hn         1 2CC       0.322700
     42 HN3          5.6990    -5.3260    -1.7430 hn         1 2CC       0.279700
@<TRIPOS>BOND
     1     2     1 1
     2     7     2 ar
     3     2     3 ar
     4     4     3 ar
     5     3    32 1
     6     5     4 ar
     7     4    33 1
     8     6     5 ar
     9     5    34 1
    10    10     6 1
    11     6     7 ar
    12     8     7 1
    13     9     8 1
    14     9    10 2
    15     9    35 1
    16    11    10 1
    17    21    11 1
    18    12    11 2
    19    16    12 1
    20    12    13 1
    21    14    13 1
    22    13    15 1
    23    17    16 1
    24    18    17 1
    25    17    21 2
    26    20    18 1
    27    19    18 1
    28    22    21 1
    29    26    22 1
    30    22    23 2
    31    24    23 1
    32    23    36 1
    33    25    24 1
    34    30    25 ar
    35    26    25 ar
    36    27    26 ar
    37    28    27 ar
    38    27    37 1
    39    28    29 ar
    40    28    38 1
    41    29    30 ar
    42    29    39 1
    43    30    31 1
    44     8    40 1
    45    16    41 1
    46    24    42 1
@<TRIPOS>SUBSTRUCTURE
     1 2CC         1 TEMP              0 ****  ****    0 ROOT
