@<TRIPOS>MOLECULE
2CD
   60    62     1     0     0
SMALL
bcc


@<TRIPOS>ATOM
      1 CAA          0.0000     0.0000     0.0000 c3         1 2CD      -0.020400
      2 CAB          4.8400     0.0020    -1.6010 c3         1 2CD       0.099200
      3 CAC          4.7870     0.0000     1.5120 c3         1 2CD       0.026600
      4 OAD          0.6860     0.9560    -4.4070 o          1 2CD      -0.581800
      5 OAE         -0.0760     1.4380    -2.0750 o          1 2CD      -0.581800
      6 CAH          6.9130     6.8740    -3.8460 ca         1 2CD      -0.098000
      7 CAI          6.0270     5.8160    -3.8840 ca         1 2CD      -0.101000
      8 CAJ          3.5850     4.1010    -4.0500 ca         1 2CD      -0.138000
      9 CAK          2.6220     4.7230    -1.9300 ca         1 2CD      -0.138000
     10 CAL          4.1900     7.3730    -4.0080 ca         1 2CD      -0.099000
     11 CAN          4.4480    11.7240    -2.3620 c3         1 2CD       0.143300
     12 CAM          3.5320     9.5830    -1.6980 c3         1 2CD       0.143300
     13 CAP          5.7330    12.3910    -2.8560 c3         1 2CD      -0.002100
     14 CAO          3.7310     9.8600    -0.2070 c3         1 2CD      -0.002100
     15 NAR          2.2730     0.0000     1.0610 nc         1 2CD      -0.648800
     16 NAS          4.5810    10.2650    -2.4680 n3         1 2CD      -0.538600
     17 NAT          1.8900     0.0010    -2.4750 nu         1 2CD      -0.347500
     18 CAU          1.5070     0.0000     0.0000 cd         1 2CD       0.385600
     19 CAV          3.6190     0.0010    -0.7200 cc         1 2CD      -0.245600
     20 CAW          2.8070     2.9600    -4.0630 ca         1 2CD       0.047900
     21 CAX          1.8470     3.5790    -1.9520 ca         1 2CD       0.047900
     22 CAY          4.6580     6.0600    -3.9650 cp         1 2CD       0.009000
     23 CAZ          3.4960     4.9900    -2.9810 cp         1 2CD       0.009000
     24 CBA          5.0850     8.4230    -3.9690 ca         1 2CD      -0.089300
     25 CBB          2.3280     0.0010    -1.1380 cd         1 2CD      -0.189700
     26 CBC          1.9400     2.6990    -3.0170 ca         1 2CD      -0.162500
     27 C14          6.4430     8.1740    -3.8880 ca         1 2CD      -0.068000
     28 NBE          3.6090     0.0010     0.6400 na         1 2CD       0.486400
     29 C16          4.5720     9.8360    -3.8730 c3         1 2CD       0.203100
     30 SBF          0.9490     1.2410    -3.0400 sy         1 2CD       1.020200
     31 HAA1        -0.3610     1.0210     0.0400 hc         1 2CD       0.024700
     32 HAA2        -0.3610    -0.4760    -0.9040 hc         1 2CD       0.024700
     33 HAA3        -0.3610    -0.5450     0.8640 hc         1 2CD       0.024700
     34 HAB1         5.4500     0.8670    -1.3720 hc         1 2CD       0.011033
     35 HAB2         4.5360     0.0390    -2.6400 hc         1 2CD       0.011033
     36 HAB3         5.4130    -0.9010    -1.4250 hc         1 2CD       0.011033
     37 HAC1         4.4710     0.0320     2.5470 h1         1 2CD       0.020367
     38 HAC2         5.3980     0.8690     1.2940 h1         1 2CD       0.020367
     39 HAC3         5.3650    -0.9000     1.3380 h1         1 2CD       0.020367
     40 HAH          7.9780     6.6860    -3.7830 ha         1 2CD       0.107000
     41 HAI          6.3950     4.7970    -3.8510 ha         1 2CD       0.111000
     42 H14          7.1420     9.0010    -3.8580 ha         1 2CD       0.111000
     43 HAJ          4.2630     4.3040    -4.8700 ha         1 2CD       0.131000
     44 HAK          2.5500     5.4110    -1.0960 ha         1 2CD       0.131000
     45 HAL          3.1260     7.5680    -4.0710 ha         1 2CD       0.117000
     46 HAM1         2.5980    10.0250    -2.0260 h1         1 2CD       0.011700
     47 HAM2         3.5030     8.5130    -1.8660 h1         1 2CD       0.011700
     48 HAO1         3.0920    10.6810     0.0960 hc         1 2CD       0.007200
     49 HAO2         3.4760     8.9740     0.3620 hc         1 2CD       0.007200
     50 HAO3         4.7660    10.1220    -0.0240 hc         1 2CD       0.007200
     51 HAN1         4.2720    12.0010    -1.3290 h1         1 2CD       0.011700
     52 HAN2         3.6140    12.0520    -2.9710 h1         1 2CD       0.011700
     53 HAP1         5.6420    12.6130    -3.9120 hc         1 2CD       0.007200
     54 HAP2         6.5700    11.7220    -2.6990 hc         1 2CD       0.007200
     55 HAP3         5.8970    13.3100    -2.3070 hc         1 2CD       0.007200
     56 H161         3.5590     9.8790    -4.2570 h1         1 2CD       0.017200
     57 H162         5.2070    10.4910    -4.4550 h1         1 2CD       0.017200
     58 HAT          2.1130    -0.7700    -3.0740 hn         1 2CD       0.338800
     59 ClF          2.9160     1.8520    -5.3950 cl         1 2CD       0.047100
     60 ClG          0.7570     3.2440    -0.6430 cl         1 2CD       0.047100
@<TRIPOS>BOND
     1     1    18 1   
     2     1    31 1   
     3     1    32 1   
     4     1    33 1   
     5     2    19 1   
     6     2    34 1   
     7     2    35 1   
     8     2    36 1   
     9     3    28 1   
    10     3    37 1   
    11     3    38 1   
    12     3    39 1   
    13     4    30 2   
    14     5    30 2   
    15     6     7 ar  
    16     6    27 ar  
    17     6    40 1   
    18     7    22 ar  
    19     7    41 1   
    20     8    20 ar  
    21     8    23 ar  
    22     8    43 1   
    23     9    21 ar  
    24     9    23 ar  
    25     9    44 1   
    26    10    22 ar  
    27    10    24 ar  
    28    10    45 1   
    29    11    13 1   
    30    11    16 1   
    31    11    51 1   
    32    11    52 1   
    33    12    14 1   
    34    12    16 1   
    35    12    46 1   
    36    12    47 1   
    37    13    53 1   
    38    13    54 1   
    39    13    55 1   
    40    14    48 1   
    41    14    49 1   
    42    14    50 1   
    43    15    18 2   
    44    15    28 1   
    45    16    29 1   
    46    17    25 1   
    47    17    30 1   
    48    17    58 1   
    49    18    25 1   
    50    19    25 2   
    51    19    28 1   
    52    20    26 ar  
    53    20    59 1   
    54    21    26 ar  
    55    21    60 1   
    56    22    23 1   
    57    24    27 ar  
    58    24    29 1   
    59    26    30 1   
    60    27    42 1   
    61    29    56 1   
    62    29    57 1   
@<TRIPOS>SUBSTRUCTURE
     1 2CD         1 TEMP              0 ****  ****    0 ROOT
