@<TRIPOS>MOLECULE
2CE
   70    71     1     0     0
SMALL
bcc


@<TRIPOS>ATOM
      1 C1           0.0000     0.0000     0.0000 ca         1 2CE      -0.036600
      2 C2           1.3840     0.0000     0.0000 ca         1 2CE      -0.078000
      3 C3           2.0760     0.0000     1.1940 ca         1 2CE      -0.093000
      4 C4           1.3820    -0.0010     2.3990 ca         1 2CE       0.030900
      5 C5          -0.0080    -0.0050     2.3950 ca         1 2CE      -0.093000
      6 C6          -0.6940     0.0010     1.1970 ca         1 2CE      -0.078000
      7 Cl7         -0.8670     0.0010    -1.5040 cl         1 2CE       0.006600
      8 S8           2.2610    -0.0010     3.9240 ss         1 2CE      -0.281000
      9 C9           0.8710    -0.0010     5.0900 c3         1 2CE      -0.013300
     10 C10          1.3980    -0.0010     6.5020 c          1 2CE       0.591100
     11 O11          2.5950    -0.0020     6.7020 o          1 2CE      -0.644100
     12 N12          0.5410    -0.0010     7.5410 ns         1 2CE      -0.175900
     13 C13          1.0530    -0.0010     8.9140 c3         1 2CE      -0.050300
     14 C14          1.3500     1.4350     9.3470 c3         1 2CE       0.012900
     15 C15          2.4680     1.9940     8.5040 ca         1 2CE      -0.055300
     16 C16          2.1770     2.6550     7.3260 ca         1 2CE      -0.044500
     17 C17          3.2000     3.1680     6.5500 ca         1 2CE      -0.113500
     18 C18          4.5200     3.0200     6.9580 ca         1 2CE      -0.072400
     19 C19          4.8070     2.3510     8.1400 ca         1 2CE      -0.113500
     20 C20          3.7800     1.8440     8.9120 ca         1 2CE      -0.044500
     21 N21          5.5560     3.5370     6.1750 nu         1 2CE      -0.278600
     22 C22          6.6290     4.1580     6.7760 c2         1 2CE       0.242100
     23 N23          7.6480     4.5390     6.0590 n2         1 2CE      -0.616100
     24 N24          6.6250     4.3720     8.1340 nz         1 2CE       0.157400
     25 C25          0.0220    -0.6020     9.8340 c          1 2CE       0.561100
     26 O26         -1.0360    -0.9910     9.3890 o          1 2CE      -0.625100
     27 N27          0.2770    -0.7060    11.1530 ns         1 2CE      -0.184900
     28 C28         -0.7240    -1.2900    12.0490 c3         1 2CE       0.045000
     29 C29         -0.1900    -1.2900    13.4830 c3         1 2CE       0.188400
     30 O30         -0.0220     0.0570    13.9290 os         1 2CE      -0.412600
     31 C31          0.4770    -0.0100    15.2660 c3         1 2CE       0.201400
     32 C32          0.6800     1.4060    15.8060 c3         1 2CE       0.197400
     33 O33         -0.5860     2.0620    15.9080 os         1 2CE      -0.346600
     34 C34         -0.3320     3.3740    16.4150 c3         1 2CE       0.150400
     35 C35         -1.6320     4.1240    16.5470 c          1 2CE       0.281100
     36 O36         -2.6750     3.5870    16.2370 o          1 2CE      -0.348100
     37 N37         -1.6370     5.3890    17.0100 nz         1 2CE       0.205600
     38 H2           1.9250     0.0000    -0.9390 ha         1 2CE       0.121500
     39 H3           3.1590    -0.0480     1.1930 ha         1 2CE       0.114500
     40 H5          -0.5510    -0.0640     3.3310 ha         1 2CE       0.114500
     41 H6          -1.7770     0.0060     1.1940 ha         1 2CE       0.121500
     42 H9C1         0.2660    -0.8850     4.9300 h1         1 2CE       0.062200
     43 H9C2         0.2660     0.8840     4.9300 h1         1 2CE       0.062200
     44 H12         -0.4460    -0.0330     7.3760 hn         1 2CE       0.208500
     45 H13          1.9630    -0.5880     8.9590 h1         1 2CE       0.072700
     46 H141         0.4620     2.0420     9.2180 hc         1 2CE       0.028200
     47 H142         1.6450     1.4440    10.3900 hc         1 2CE       0.028200
     48 H16          1.1480     2.7700     7.0090 ha         1 2CE       0.117500
     49 H17          2.9730     3.6880     5.6270 ha         1 2CE       0.106000
     50 H19          5.8350     2.2330     8.4610 ha         1 2CE       0.106000
     51 H20          4.0040     1.3220     9.8350 ha         1 2CE       0.117500
     52 H21          5.5130     3.4670     5.1780 hn         1 2CE       0.334800
     53 H23          7.6510     4.3830     5.0700 hn         1 2CE       0.381400
     54 H241         5.6820     4.3730     8.4700 hn         1 2CE       0.231800
     55 H242         7.0500     5.2570     8.3340 hn         1 2CE       0.231800
     56 H27          1.1540    -0.3940    11.5190 hn         1 2CE       0.174500
     57 H281        -0.9340    -2.3070    11.7420 h1         1 2CE       0.044200
     58 H282        -1.6350    -0.7040    12.0040 h1         1 2CE       0.044200
     59 H291        -0.8930    -1.8000    14.1300 h1         1 2CE       0.012200
     60 H292         0.7640    -1.8020    13.5120 h1         1 2CE       0.012200
     61 H311         1.4230    -0.5380    15.2730 h1         1 2CE       0.017700
     62 H312        -0.2340    -0.5360    15.8910 h1         1 2CE       0.017700
     63 H321         1.3210     1.9610    15.1330 h1         1 2CE       0.005700
     64 H322         1.1410     1.3570    16.7850 h1         1 2CE       0.005700
     65 H341         0.1420     3.3000    17.3870 h1         1 2CE       0.029700
     66 H342         0.3230     3.9040    15.7340 h1         1 2CE       0.029700
     67 H371        -0.8110     5.8600    16.7010 hn         1 2CE       0.247467
     68 H372        -1.6600     5.3780    18.0110 hn         1 2CE       0.247467
     69 H243         7.1430     3.6470     8.5890 hn         1 2CE       0.231800
     70 H373        -2.4390     5.8710    16.6550 hn         1 2CE       0.247467
@<TRIPOS>BOND
     1     1     2 ar  
     2     1     6 ar  
     3     1     7 1   
     4     2     3 ar  
     5     2    38 1   
     6     3     4 ar  
     7     3    39 1   
     8     4     5 ar  
     9     4     8 1   
    10     5     6 ar  
    11     5    40 1   
    12     6    41 1   
    13     8     9 1   
    14     9    10 1   
    15     9    42 1   
    16     9    43 1   
    17    10    11 2   
    18    10    12 1   
    19    12    13 1   
    20    12    44 1   
    21    13    14 1   
    22    13    25 1   
    23    13    45 1   
    24    14    15 1   
    25    14    46 1   
    26    14    47 1   
    27    15    16 ar  
    28    15    20 ar  
    29    16    17 ar  
    30    16    48 1   
    31    17    18 ar  
    32    17    49 1   
    33    18    19 ar  
    34    18    21 1   
    35    19    20 ar  
    36    19    50 1   
    37    20    51 1   
    38    21    22 1   
    39    21    52 1   
    40    22    23 2   
    41    22    24 1   
    42    23    53 1   
    43    24    54 1   
    44    24    55 1   
    45    24    69 1   
    46    25    26 2   
    47    25    27 1   
    48    27    28 1   
    49    27    56 1   
    50    28    29 1   
    51    28    57 1   
    52    28    58 1   
    53    29    30 1   
    54    29    59 1   
    55    29    60 1   
    56    30    31 1   
    57    31    32 1   
    58    31    61 1   
    59    31    62 1   
    60    32    33 1   
    61    32    63 1   
    62    32    64 1   
    63    33    34 1   
    64    34    35 1   
    65    34    65 1   
    66    34    66 1   
    67    35    36 2   
    68    35    37 1   
    69    37    67 1   
    70    37    68 1   
    71    37    70 1   
@<TRIPOS>SUBSTRUCTURE
     1 2CE         1 TEMP              0 ****  ****    0 ROOT
