@<TRIPOS>MOLECULE
molecule
   70    71     1     0     0
SMALL
bcc


@<TRIPOS>ATOM
      1 C1           0.0000     0.0000     0.0000 ca         1 2CE       0.028400
      2 C2           1.3840     0.0000     0.0000 ca         1 2CE      -0.101000
      3 C3           2.0760     0.0000     1.1940 ca         1 2CE      -0.123500
      4 C4           1.3820    -0.0010     2.3990 ca         1 2CE       0.006900
      5 C5          -0.0080    -0.0050     2.3950 ca         1 2CE      -0.123500
      6 C6          -0.6940     0.0010     1.1970 ca         1 2CE      -0.101000
      7 Cl7         -0.8670     0.0010    -1.5040 cl         1 2CE      -0.084400
      8 S8           2.2610    -0.0010     3.9240 ss         1 2CE      -0.178000
      9 C9           0.8710    -0.0010     5.0900 c3         1 2CE      -0.102300
     10 C10          1.3980    -0.0010     6.5020 c          1 2CE       0.675100
     11 O11          2.5950    -0.0020     6.7020 o          1 2CE      -0.605100
     12 N12          0.5410    -0.0010     7.5410 ns         1 2CE      -0.569900
     13 C13          1.0530    -0.0010     8.9140 c3         1 2CE       0.049700
     14 C14          1.3500     1.4350     9.3470 c3         1 2CE      -0.054100
     15 C15          2.4680     1.9940     8.5040 ca         1 2CE      -0.054300
     16 C16          2.1770     2.6550     7.3260 ca         1 2CE      -0.077500
     17 C17          3.2000     3.1680     6.5500 ca         1 2CE      -0.152000
     18 C18          4.5200     3.0200     6.9580 ca         1 2CE       0.087600
     19 C19          4.8070     2.3510     8.1400 ca         1 2CE      -0.152000
     20 C20          3.7800     1.8440     8.9120 ca         1 2CE      -0.077500
     21 N21          5.5560     3.5370     6.1750 nu         1 2CE      -0.703600
     22 C22          6.6290     4.1580     6.7760 c2         1 2CE       0.696100
     23 N23          7.6480     4.5390     6.0590 n2         1 2CE      -0.771100
     24 N24          6.6250     4.3720     8.1340 nz         1 2CE      -0.811600
     25 C25          0.0220    -0.6020     9.8340 c          1 2CE       0.649100
     26 O26         -1.0360    -0.9910     9.3890 o          1 2CE      -0.584100
     27 N27          0.2770    -0.7060    11.1530 ns         1 2CE      -0.581900
     28 C28         -0.7240    -1.2900    12.0490 c3         1 2CE       0.116000
     29 C29         -0.1900    -1.2900    13.4830 c3         1 2CE       0.103400
     30 O30         -0.0220     0.0570    13.9290 os         1 2CE      -0.417600
     31 C31          0.4770    -0.0100    15.2660 c3         1 2CE       0.130400
     32 C32          0.6800     1.4060    15.8060 c3         1 2CE       0.121400
     33 O33         -0.5860     2.0620    15.9080 os         1 2CE      -0.352600
     34 C34         -0.3320     3.3740    16.4150 c3         1 2CE       0.060400
     35 C35         -1.6320     4.1240    16.5470 c          1 2CE       0.463100
     36 O36         -2.6750     3.5870    16.2370 o          1 2CE      -0.345100
     37 N37         -1.6370     5.3890    17.0100 nz         1 2CE      -0.683400
     38 H2           1.9250    -0.0020    -0.9390 ha         1 2CE       0.153500
     39 H3           3.1590    -0.0470     1.1930 ha         1 2CE       0.137000
     40 H5          -0.5520     0.0350     3.3310 ha         1 2CE       0.137000
     41 H6          -1.7770     0.0050     1.1940 ha         1 2CE       0.153500
     42 H9C1         0.2660    -0.8850     4.9300 h1         1 2CE       0.090200
     43 H9C2         0.2660     0.8840     4.9300 h1         1 2CE       0.090200
     44 H12         -0.4460    -0.0240     7.3760 hn         1 2CE       0.346500
     45 H13          1.9630    -0.5880     8.9590 h1         1 2CE       0.101700
     46 H141         1.6450     1.4440    10.3900 hc         1 2CE       0.061200
     47 H142         0.4620     2.0420     9.2180 hc         1 2CE       0.061200
     48 H16          1.1480     2.7700     7.0090 ha         1 2CE       0.149000
     49 H17          2.9730     3.6880     5.6270 ha         1 2CE       0.131500
     50 H19          5.8350     2.2330     8.4610 ha         1 2CE       0.131500
     51 H20          4.0040     1.3220     9.8350 ha         1 2CE       0.149000
     52 H21          5.5060     3.4790     5.1780 hn         1 2CE       0.520800
     53 H23          8.4280     4.9900     6.4950 hn         1 2CE       0.443400
     54 H241         7.0920     5.2340     8.3370 hn         1 2CE       0.468133
     55 H242         7.1000     3.6210     8.5930 hn         1 2CE       0.468133
     56 H27          1.1550    -0.3970    11.5190 hn         1 2CE       0.313500
     57 H281        -1.6350    -0.7040    12.0040 h1         1 2CE       0.076200
     58 H282        -0.9340    -2.3070    11.7420 h1         1 2CE       0.076200
     59 H291        -0.8930    -1.8000    14.1300 h1         1 2CE       0.048700
     60 H292         0.7640    -1.8020    13.5120 h1         1 2CE       0.048700
     61 H311        -0.2340    -0.5360    15.8910 h1         1 2CE       0.056700
     62 H312         1.4230    -0.5380    15.2730 h1         1 2CE       0.056700
     63 H321         1.1410     1.3570    16.7850 h1         1 2CE       0.045200
     64 H322         1.3210     1.9610    15.1330 h1         1 2CE       0.045200
     65 H341         0.3230     3.9040    15.7340 h1         1 2CE       0.072700
     66 H342         0.1420     3.3000    17.3870 h1         1 2CE       0.072700
     67 H371        -2.4060     5.5110    17.6390 hn         1 2CE       0.480800
     68 H372        -1.7300     6.0240    16.2430 hn         1 2CE       0.480800
     69 H243         5.6810     4.4310     8.4620 hn         1 2CE       0.468133
     70 H373        -0.7770     5.5730    17.4870 hn         1 2CE       0.480800
@<TRIPOS>BOND
     1     1     2 ar
     2     1     6 ar
     3     1     7 1
     4     2     3 ar
     5     2    38 1
     6     3     4 ar
     7     3    39 1
     8     4     5 ar
     9     4     8 1
    10     5     6 ar
    11     5    40 1
    12     6    41 1
    13     8     9 1
    14     9    10 1
    15     9    42 1
    16     9    43 1
    17    10    11 2
    18    10    12 1
    19    12    13 1
    20    12    44 1
    21    13    14 1
    22    13    25 1
    23    13    45 1
    24    14    15 1
    25    14    46 1
    26    14    47 1
    27    15    16 ar
    28    15    20 ar
    29    16    17 ar
    30    16    48 1
    31    17    18 ar
    32    17    49 1
    33    18    19 ar
    34    18    21 1
    35    19    20 ar
    36    19    50 1
    37    20    51 1
    38    21    22 1
    39    21    52 1
    40    22    23 2
    41    22    24 1
    42    23    53 1
    43    24    54 1
    44    24    55 1
    45    25    26 2
    46    25    27 1
    47    27    28 1
    48    27    56 1
    49    28    29 1
    50    28    57 1
    51    28    58 1
    52    29    30 1
    53    29    59 1
    54    29    60 1
    55    30    31 1
    56    31    32 1
    57    31    61 1
    58    31    62 1
    59    32    33 1
    60    32    63 1
    61    32    64 1
    62    33    34 1
    63    34    35 1
    64    34    65 1
    65    34    66 1
    66    35    36 2
    67    35    37 1
    68    37    67 1
    69    37    68 1
    70    69    24 1
    71    70    37 1
@<TRIPOS>SUBSTRUCTURE
     1 2CE         1 TEMP              0 ****  ****    0 ROOT
