@<TRIPOS>MOLECULE
molecule
   49    48     1     0     0
SMALL
bcc


@<TRIPOS>ATOM
      1 F            0.0000     0.0000     0.0000 f          1 2CF      -0.182500
      2 C1           1.3510     0.0000     0.0000 c2         1 2CF       0.166300
      3 C2           2.0080     0.0000     1.1370 c2         1 2CF      -0.259400
      4 C3           3.5080    -0.1400     1.1400 c3         1 2CF      -0.018200
      5 C4           1.2610     0.1400     2.4390 c3         1 2CF      -0.031900
      6 C5           4.1500     1.2490     1.1590 c3         1 2CF      -0.055200
      7 C6           5.6500     1.1090     1.1620 c2         1 2CF      -0.129200
      8 C7           6.3620     1.7070     2.0850 c2         1 2CF      -0.186400
      9 C8           7.8440     1.4540     2.1770 c3         1 2CF      -0.056200
     10 C9           8.5960     2.5410     1.4080 c3         1 2CF      -0.070200
     11 PA           2.4640    -1.5650    -3.4470 p5         1 2CF       1.416800
     12 PB           1.8020    -3.6580    -5.4370 p5         1 2CF       1.306900
     13 C10         10.0800     2.2870     1.5000 c2         1 2CF      -0.572200
     14 C11         10.7730     2.0580     0.4120 c2         1 2CF      -0.045400
     15 C12         10.0820     2.0110    -0.9260 c3         1 2CF      -0.072400
     16 C13         12.2610     1.8420     0.5000 c3         1 2CF      -0.072400
     17 C14          5.6980     2.6500     3.0550 c3         1 2CF      -0.039900
     18 C15          2.1040    -0.0070    -1.3050 c3         1 2CF       0.239600
     19 O1A          1.8260    -1.2190    -2.0090 os         1 2CF      -0.585200
     20 O2A          2.1640    -0.4690    -4.3960 o          1 2CF      -0.853500
     21 O3A          4.0590    -1.7250    -3.3000 o          1 2CF      -0.853500
     22 OB1          3.2020    -4.4120    -5.6930 o          1 2CF      -0.886500
     23 OB2          1.5910    -2.6400    -6.4910 o          1 2CF      -0.886500
     24 OB3          0.6010    -4.7290    -5.4770 o          1 2CF      -0.886500
     25 OB4          1.8340    -2.9400    -3.9970 os         1 2CF      -0.710800
     26 H3           3.8230    -0.6720     0.2510 hc         1 2CF       0.065200
     27 H3A          3.8170    -0.6920     2.0190 hc         1 2CF       0.065200
     28 H4           0.9500     1.1690     2.5680 hc         1 2CF       0.021367
     29 H4A          1.9080    -0.1480     3.2590 hc         1 2CF       0.021367
     30 H4B          0.3890    -0.5020     2.4250 hc         1 2CF       0.021367
     31 H5           3.8410     1.8010     0.2790 hc         1 2CF       0.046200
     32 H5A          3.8340     1.7810     2.0480 hc         1 2CF       0.046200
     33 H6           6.1300     0.4320     0.4650 ha         1 2CF       0.147000
     34 H8           8.0720     0.4850     1.7480 hc         1 2CF       0.048700
     35 H8A          8.1490     1.4690     3.2160 hc         1 2CF       0.048700
     36 H9           8.2910     2.5260     0.3690 hc         1 2CF       0.048700
     37 H9A          8.3690     3.5090     1.8370 hc         1 2CF       0.048700
     38 H10          9.3420     1.5010     1.3870 ha         1 2CF       0.309000
     39 H12          9.5610     2.9450    -1.0970 hc         1 2CF       0.035867
     40 H12A         9.3720     1.1940    -0.9380 hc         1 2CF       0.035867
     41 H12B        10.8180     1.8610    -1.7070 hc         1 2CF       0.035867
     42 H13         12.7420     2.7610     0.8110 hc         1 2CF       0.035867
     43 H13A        12.6410     1.5460    -0.4710 hc         1 2CF       0.035867
     44 H13B        12.4710     1.0620     1.2220 hc         1 2CF       0.035867
     45 H14          6.4540     3.1490     3.6490 hc         1 2CF       0.029700
     46 H14A         5.1240     3.3870     2.5070 hc         1 2CF       0.029700
     47 H14B         5.0380     2.0910     3.7080 hc         1 2CF       0.029700
     48 H15          3.1680     0.0610    -1.1090 h1         1 2CF       0.040700
     49 H15A         1.7930     0.8390    -1.9060 h1         1 2CF       0.040700
@<TRIPOS>BOND
     1     2     1 1   
     2     3     2 2   
     3     2    18 1   
     4     5     3 1   
     5     4     3 1   
     6     4     6 1   
     7     4    26 1   
     8     4    27 1   
     9     5    28 1   
    10     5    29 1   
    11     5    30 1   
    12     6     7 1   
    13     6    31 1   
    14     6    32 1   
    15     7     8 2   
    16     7    33 1   
    17     8    17 1   
    18     8     9 1   
    19    10     9 1   
    20     9    34 1   
    21     9    35 1   
    22    13    10 1   
    23    10    36 1   
    24    10    37 1   
    25    19    11 1   
    26    11    20 1   
    27    11    21 1   
    28    11    25 1   
    29    23    12 1   
    30    12    24 1   
    31    12    25 1   
    32    12    22 1   
    33    14    13 2   
    34    13    38 1   
    35    15    14 1   
    36    16    14 1   
    37    15    39 1   
    38    15    40 1   
    39    15    41 1   
    40    16    42 1   
    41    16    43 1   
    42    16    44 1   
    43    17    45 1   
    44    17    46 1   
    45    17    47 1   
    46    18    19 1   
    47    18    48 1   
    48    18    49 1   
@<TRIPOS>SUBSTRUCTURE
     1 2CF         1 TEMP              0 ****  ****    0 ROOT
