@<TRIPOS>MOLECULE
2CF
   49    48     1     0     0
SMALL
bcc


@<TRIPOS>ATOM
      1 F          -0.1590    0.3040   -0.4850 f         1 2CF     -0.244500
      2 C1          1.1910    0.1160   -0.3330 c2        1 2CF      0.108300
      3 C2          1.7080    0.1440    0.9220 c2        1 2CF     -0.214400
      4 C3          3.1490   -0.0610    1.2140 c3        1 2CF     -0.057200
      5 C4          0.8540    0.3700    2.1160 c3        1 2CF     -0.032900
      6 C5          3.7600    1.0970    1.9890 c3        1 2CF     -0.035200
      7 C6          5.2340    1.0940    1.8330 c2        1 2CF     -0.109200
      8 C7          6.1280    1.7070    2.6250 c2        1 2CF     -0.232400
      9 C8          7.5870    1.6110    2.3170 c3        1 2CF     -0.003200
     10 C9          7.9110    1.9530    0.8710 c3        1 2CF     -0.064200
     11 PA          4.4480    0.1720   -2.2910 p5        1 2CF      1.581800
     12 PB          5.3600   -1.6540   -4.9410 p5        1 2CF      1.450900
     13 C10         9.2800    1.5170    0.5140 c2        1 2CF     -0.217200
     14 C11         9.5890    0.7960   -0.5770 c2        1 2CF     -0.086400
     15 C12         8.6000    0.3450   -1.5830 c3        1 2CF     -0.080400
     16 C13        10.9970    0.4020   -0.8510 c3        1 2CF     -0.080400
     17 C14         5.7880    2.4870    3.8360 c3        1 2CF     -0.022900
     18 C15         1.8760   -0.0670   -1.6890 c3        1 2CF      0.237600
     19 O1A         3.0980   -0.6670   -1.6260 os        1 2CF     -0.558200
     20 O2A         3.8700    1.5110   -2.5990 o         1 2CF     -0.925000
     21 O3A         5.3840    0.1280   -1.1190 o         1 2CF     -0.925000
     22 OB1         6.5540   -0.8710   -5.4100 o         1 2CF     -0.951833
     23 OB2         4.1620   -1.6030   -5.8450 o         1 2CF     -0.951833
     24 OB3         5.6730   -3.0130   -4.3840 o         1 2CF     -0.951833
     25 OB4         4.8350   -0.7040   -3.4990 os        1 2CF     -0.795800
     26 H3          3.7410   -0.2030    0.2490 hc        1 2CF      0.095200
     27 H3A         3.2650   -1.0050    1.8120 hc        1 2CF      0.095200
     28 H4          1.0870   -0.3850    2.9080 hc        1 2CF      0.007367
     29 H4A         1.0530    1.3860    2.5430 hc        1 2CF      0.007367
     30 H4B        -0.2350    0.3000    1.8730 hc        1 2CF      0.007367
     31 H5          3.4550    1.0480    3.0680 hc        1 2CF      0.018700
     32 H5A         3.3680    2.0660    1.5750 hc        1 2CF      0.018700
     33 H6          5.5790    0.5500    0.9110 ha        1 2CF      0.244000
     34 H8          8.1710    2.2860    2.9990 hc        1 2CF      0.006700
     35 H8A         7.9290    0.5610    2.5270 hc        1 2CF      0.006700
     36 H9          7.1510    1.4780    0.1770 hc        1 2CF      0.083200
     37 H9A         7.8280    3.0650    0.7270 hc        1 2CF      0.083200
     38 H10        10.0690    1.8190    1.2230 ha        1 2CF      0.066000
     39 H12         8.3020    1.1990   -2.2430 hc        1 2CF      0.053200
     40 H12A        7.6480   -0.0390   -1.1140 hc        1 2CF      0.053200
     41 H12B        9.0150   -0.4640   -2.2310 hc        1 2CF      0.053200
     42 H13        11.3000    0.7580   -1.8670 hc        1 2CF      0.053200
     43 H13A       11.7090    0.8230   -0.1000 hc        1 2CF      0.053200
     44 H13B       11.0850   -0.7140   -0.8350 hc        1 2CF      0.053200
     45 H14         4.6860    2.5060    4.0200 hc        1 2CF      0.006033
     46 H14A        6.1400    3.5450    3.7290 hc        1 2CF      0.006033
     47 H14B        6.2870    2.0520    4.7390 hc        1 2CF      0.006033
     48 H15         1.1650   -0.7120   -2.2910 h1        1 2CF      0.041700
     49 H15A        1.9410    0.9610   -2.1620 h1        1 2CF      0.041700
@<TRIPOS>BOND
     1    1    2 1   
     2    2    3 2   
     3    2   18 1   
     4    3    4 1   
     5    3    5 1   
     6    4    6 1   
     7    4   26 1   
     8    4   27 1   
     9    5   28 1   
    10    5   29 1   
    11    5   30 1   
    12    6    7 1   
    13    6   31 1   
    14    6   32 1   
    15    7    8 2   
    16    7   33 1   
    17    8    9 1   
    18    8   17 1   
    19    9   10 1   
    20    9   34 1   
    21    9   35 1   
    22   10   13 1   
    23   10   36 1   
    24   10   37 1   
    25   11   19 1   
    26   11   20 1   
    27   11   21 1   
    28   11   25 1   
    29   12   22 1   
    30   12   23 1   
    31   12   24 1   
    32   12   25 1   
    33   13   14 2   
    34   13   38 1   
    35   14   15 1   
    36   14   16 1   
    37   15   39 1   
    38   15   40 1   
    39   15   41 1   
    40   16   42 1   
    41   16   43 1   
    42   16   44 1   
    43   17   45 1   
    44   17   46 1   
    45   17   47 1   
    46   18   19 1   
    47   18   48 1   
    48   18   49 1   
@<TRIPOS>SUBSTRUCTURE
     1 2CF         1 TEMP              0 ****  ****    0 ROOT
