@<TRIPOS>MOLECULE
2CG
   20    20     1     0     0
SMALL
bcc


@<TRIPOS>ATOM
      1 N           1.2470    0.8490   -0.8570 n3        1 2CG     -0.923800
      2 CA          1.8590   -0.3280   -0.2650 c3        1 2CG      0.091500
      3 C           0.9940   -1.6050   -0.4980 c         1 2CG      0.919600
      4 O           1.6010   -2.6920   -0.7570 o         1 2CG     -0.889300
      5 OXT        -0.2740   -1.5490   -0.4780 o         1 2CG     -0.889300
      6 CB          2.2690   -0.2140    1.1950 cx        1 2CG     -0.100700
      7 CG1         1.8960    0.9200    2.1200 cx        1 2CG     -0.205200
      8 CD1         1.5270    0.6760    3.5680 c         1 2CG      0.933600
      9 O11         2.1140   -0.2140    4.2610 o         1 2CG     -0.897800
     10 O12         0.6250    1.4080    4.0960 o         1 2CG     -0.897800
     11 CG2         3.3280    0.7600    1.6700 cx        1 2CG     -0.205200
     12 CD2         4.0330    1.7900    0.8210 c         1 2CG      0.933600
     13 O21         5.3060    1.7340    0.7390 o         1 2CG     -0.897800
     14 O22         3.4010    2.7310    0.2420 o         1 2CG     -0.897800
     15 HN1         1.7620    1.6640   -0.5630 hn        1 2CG      0.346300
     16 HN2         0.3080    0.9260   -0.5100 hn        1 2CG      0.346300
     17 HA          2.8210   -0.5010   -0.8400 h1        1 2CG      0.037700
     18 HB          2.3050   -1.2210    1.6630 hc        1 2CG      0.072700
     19 HG1         1.3310    1.7770    1.7020 hc        1 2CG      0.062700
     20 HG2         4.0320    0.3500    2.4270 hc        1 2CG      0.062700
@<TRIPOS>BOND
     1    1    2 1
     2    1   15 1
     3    1   16 1
     4    2    3 1
     5    2    6 1
     6    2   17 1
     7    3    4 1
     8    3    5 1
     9    6    7 1
    10    6   11 1
    11    6   18 1
    12    7    8 1
    13    7   11 1
    14    7   19 1
    15    8    9 1
    16    8   10 1
    17   11   12 1
    18   11   20 1
    19   12   13 1
    20   12   14 1
@<TRIPOS>SUBSTRUCTURE
     1 2CG         1 TEMP              0 ****  ****    0 ROOT
