@<TRIPOS>MOLECULE
molecule
   13    13     1     0     0
SMALL
bcc


@<TRIPOS>ATOM
      1 C1           0.0000     0.0000     0.0000 ca         1 2CH       0.112100
      2 C2           1.3870     0.0000     0.0000 ca         1 2CH      -0.148000
      3 C3           2.0770     0.0000     1.1960 ca         1 2CH      -0.115000
      4 C4           1.3870     0.0020     2.3940 ca         1 2CH      -0.129000
      5 C5           0.0050     0.0010     2.3980 ca         1 2CH      -0.111000
      6 C6          -0.6910     0.0060     1.2030 ca         1 2CH       0.004400
      7 O           -0.6800    -0.0010    -1.1760 oh         1 2CH      -0.511100
      8 Cl8         -2.4270     0.0060     1.2080 cl         1 2CH      -0.094400
      9 H2           1.9290    -0.0030    -0.9380 ha         1 2CH       0.146000
     10 H3           3.1610     0.0000     1.1960 ha         1 2CH       0.137000
     11 H4           1.9300     0.0000     3.3310 ha         1 2CH       0.138000
     12 H5          -0.5340     0.0040     3.3370 ha         1 2CH       0.147000
     13 H           -0.7630    -0.8860    -1.4910 ho         1 2CH       0.423000
@<TRIPOS>BOND
     1     1     2 ar  
     2     1     6 ar  
     3     1     7 1   
     4     2     3 ar  
     5     2     9 1   
     6     3     4 ar  
     7     3    10 1   
     8     4     5 ar  
     9     4    11 1   
    10     5     6 ar  
    11     5    12 1   
    12     6     8 1   
    13     7    13 1   
@<TRIPOS>SUBSTRUCTURE
     1 2CH         1 TEMP              0 ****  ****    0 ROOT
