@<TRIPOS>MOLECULE
molecule
   62    65     1     0     0
SMALL
bcc


@<TRIPOS>ATOM
      1 OAA          0.0000     0.0000     0.0000 o          1 2CJ      -0.863300
      2 OAB          2.4290    -2.3930    -2.5690 o          1 2CJ      -0.613100
      3 OAC          1.8800     0.0000     1.1620 o          1 2CJ      -0.863300
      4 CAD         -4.3090    -8.5620    -0.6830 ca         1 2CJ      -0.132500
      5 CAE          2.2000   -10.9090    -1.5670 ca         1 2CJ      -0.132500
      6 CAF         -3.6490    -8.5140     0.5320 ca         1 2CJ      -0.135000
      7 CAG         -3.6280    -8.2710    -1.8500 ca         1 2CJ      -0.135000
      8 CAH          2.0320   -10.5610    -0.2400 ca         1 2CJ      -0.135000
      9 CAI          1.6040   -10.1570    -2.5610 ca         1 2CJ      -0.135000
     10 CAJ         -2.3100    -8.1730     0.5780 ca         1 2CJ      -0.111250
     11 CAK         -2.2890    -7.9310    -1.8040 ca         1 2CJ      -0.111250
     12 CAL          1.2640    -9.4600     0.0920 ca         1 2CJ      -0.111250
     13 CAM          0.8360    -9.0560    -2.2280 ca         1 2CJ      -0.111250
     14 CAN         -0.2790     1.2770    -3.9690 c3         1 2CJ      -0.094900
     15 CAO          1.1310     1.0920    -4.5790 c3         1 2CJ      -0.094900
     16 CAP          1.7740    -5.0310    -2.5990 c3         1 2CJ       0.112000
     17 CAQ         -0.6100    -4.2380    -2.3510 c3         1 2CJ       0.112000
     18 CAR          1.5060    -6.0320    -1.4710 c3         1 2CJ       0.137800
     19 CAS         -0.7840    -5.2710    -1.2320 c3         1 2CJ       0.137800
     20 CAT         -0.0440     0.9820    -2.4670 c3         1 2CJ      -0.061900
     21 CAU          1.7250    -0.1040    -3.8070 c3         1 2CJ      -0.061900
     22 CAV          1.9620     0.0010    -1.3050 c3         1 2CJ      -0.184400
     23 CAW          0.2520    -1.5150    -2.3370 c3         1 2CJ      -0.145400
     24 CAX          1.2080     0.0000     0.0000 c          1 2CJ       0.889600
     25 CAY          1.2460    -2.6390    -2.4670 c          1 2CJ       0.671100
     26 CAZ         -1.6310    -7.8810    -0.5900 ca         1 2CJ      -0.073800
     27 CBA          0.6670    -8.7080    -0.9020 ca         1 2CJ      -0.073800
     28 CBB         -0.1710    -7.5080    -0.5390 c3         1 2CJ       0.262100
     29 NBC          0.8200    -3.9180    -2.4730 n          1 2CJ      -0.506800
     30 NBD          0.0900    -6.4220    -1.4930 n3         1 2CJ      -0.734600
     31 CBE          0.9770    -0.1740    -2.4630 c3         1 2CJ      -0.019000
     32 HAF         -4.1820    -8.7430     1.4470 ha         1 2CJ       0.124750
     33 HAG         -4.1450    -8.3100    -2.8010 ha         1 2CJ       0.124750
     34 HAH          2.5000   -11.1500     0.5390 ha         1 2CJ       0.124750
     35 HAI          1.7370   -10.4310    -3.6010 ha         1 2CJ       0.124750
     36 HAJ         -1.7930    -8.1350     1.5290 ha         1 2CJ       0.139000
     37 HAK         -1.7570    -7.7020    -2.7190 ha         1 2CJ       0.139000
     38 HAL          1.1310    -9.1860     1.1320 ha         1 2CJ       0.139000
     39 HAM          0.3690    -8.4670    -3.0080 ha         1 2CJ       0.139000
     40 HAN         -0.9760     0.5640    -4.3940 hc         1 2CJ       0.024700
     41 HANA        -0.6260     2.2930    -4.1090 hc         1 2CJ       0.024700
     42 HAO          1.7310     1.9800    -4.4190 hc         1 2CJ       0.024700
     43 HAOA         1.0590     0.8610    -5.6350 hc         1 2CJ       0.024700
     44 HAP          1.6380    -5.5180    -3.5570 h1         1 2CJ       0.056200
     45 HAPA         2.7860    -4.6530    -2.5170 h1         1 2CJ       0.056200
     46 HAQ         -1.1640    -3.3400    -2.1050 h1         1 2CJ       0.056200
     47 HAQA        -0.9710    -4.6500    -3.2850 h1         1 2CJ       0.056200
     48 HAR          1.7380    -5.5710    -0.5180 h1         1 2CJ       0.048950
     49 HARA         2.1240    -6.9100    -1.6140 h1         1 2CJ       0.048950
     50 HAS         -1.8150    -5.6010    -1.2030 h1         1 2CJ       0.048950
     51 HASA        -0.5160    -4.8230    -0.2830 h1         1 2CJ       0.048950
     52 HAT          0.3690     1.8530    -1.9710 hc         1 2CJ       0.050700
     53 HATA        -0.9680     0.6710    -1.9940 hc         1 2CJ       0.050700
     54 HAU          2.7820     0.0560    -3.6340 hc         1 2CJ       0.050700
     55 HAUA         1.5680    -1.0190    -4.3650 hc         1 2CJ       0.050700
     56 HAV          2.6750    -0.8150    -1.3110 hc         1 2CJ       0.051200
     57 HAVA         2.4890     0.9410    -1.4170 hc         1 2CJ       0.051200
     58 HAW         -0.2340    -1.5730    -1.3700 hc         1 2CJ       0.076200
     59 HAWA        -0.4920    -1.5980    -3.1200 hc         1 2CJ       0.076200
     60 HBB          0.0830    -7.1790     0.4610 h1         1 2CJ       0.042700
     61 HAD         -5.3580    -8.8290    -0.7200 ha         1 2CJ       0.121500
     62 HAE          2.8020   -11.7710    -1.8280 ha         1 2CJ       0.121500
@<TRIPOS>BOND
     1     1    24 1
     2     2    25 2
     3     3    24 1
     4     4     6 ar
     5     4     7 ar
     6     4    61 1
     7     5     8 ar
     8     5     9 ar
     9     5    62 1
    10     6    10 ar
    11     6    32 1
    12     7    11 ar
    13     7    33 1
    14     8    12 ar
    15     8    34 1
    16     9    13 ar
    17     9    35 1
    18    10    26 ar
    19    10    36 1
    20    11    26 ar
    21    11    37 1
    22    12    27 ar
    23    12    38 1
    24    13    27 ar
    25    13    39 1
    26    14    15 1
    27    14    20 1
    28    14    40 1
    29    14    41 1
    30    15    21 1
    31    15    42 1
    32    15    43 1
    33    16    18 1
    34    16    29 1
    35    16    44 1
    36    16    45 1
    37    17    19 1
    38    17    29 1
    39    17    46 1
    40    17    47 1
    41    18    30 1
    42    18    48 1
    43    18    49 1
    44    19    30 1
    45    19    50 1
    46    19    51 1
    47    20    31 1
    48    20    52 1
    49    20    53 1
    50    21    31 1
    51    21    54 1
    52    21    55 1
    53    22    24 1
    54    22    31 1
    55    22    56 1
    56    22    57 1
    57    23    25 1
    58    23    31 1
    59    23    58 1
    60    23    59 1
    61    25    29 1
    62    26    28 1
    63    27    28 1
    64    28    30 1
    65    28    60 1
@<TRIPOS>SUBSTRUCTURE
     1 2CJ         1 TEMP              0 ****  ****    0 ROOT
