@<TRIPOS>MOLECULE
molecule
   21    22     1     0     0
SMALL
bcc


@<TRIPOS>ATOM
      1 CAE          0.0000     0.0000     0.0000 c3         1 2CK       0.151800
      2 CAF          1.5300     0.0000     0.0000 c3         1 2CK      -0.031100
      3 CAI          2.0450     0.0000     1.4160 ca         1 2CK      -0.064300
      4 CAC          3.3650    -0.3560     1.6400 ca         1 2CK      -0.129000
      5 CAA          3.8780    -0.3640     2.9210 ca         1 2CK      -0.127000
      6 CAB          3.0710    -0.0150     3.9880 ca         1 2CK      -0.131000
      7 CAD          1.7540     0.3390     3.7660 ca         1 2CK      -0.126000
      8 CAJ          1.2370     0.3450     2.4800 ca         1 2CK      -0.075300
      9 CAG         -0.2070     0.7270     2.2890 c3         1 2CK       0.204100
     10 NAH         -0.4660     1.0760     0.8890 n7         1 2CK      -0.813200
     11 H1          -0.3520     0.1960    -1.0060 h1         1 2CK       0.036700
     12 H2          -0.3520    -0.9500     0.3830 h1         1 2CK       0.036700
     13 H3           1.8770    -0.8990    -0.4960 hc         1 2CK       0.058700
     14 H4           1.8770     0.8990    -0.4960 hc         1 2CK       0.058700
     15 H5           3.9980    -0.6300     0.8050 ha         1 2CK       0.129000
     16 H6           4.9110    -0.6420     3.0910 ha         1 2CK       0.128000
     17 H7           3.4700    -0.0200     4.9950 ha         1 2CK       0.128000
     18 H8           1.1220     0.6120     4.6020 ha         1 2CK       0.127000
     19 H9          -0.8370    -0.1090     2.5690 h1         1 2CK       0.040700
     20 H10         -0.4360     1.5790     2.9170 h1         1 2CK       0.040700
     21 H11         -1.4480     1.2170     0.7560 hn         1 2CK       0.353800
@<TRIPOS>BOND
     1     5     6 ar
     2     5     4 ar
     3     6     7 ar
     4     4     3 ar
     5     7     8 ar
     6     3     8 ar
     7     3     2 1
     8     8     9 1
     9     2     1 1
    10     9    10 1
    11     1    10 1
    12     1    11 1
    13     1    12 1
    14     2    13 1
    15     2    14 1
    16     4    15 1
    17     5    16 1
    18     6    17 1
    19     7    18 1
    20     9    19 1
    21     9    20 1
    22    10    21 1
@<TRIPOS>SUBSTRUCTURE
     1 2CK         1 TEMP              0 ****  ****    0 ROOT
