@<TRIPOS>MOLECULE
2CK
   21    22     1     0     0
SMALL
bcc


@<TRIPOS>ATOM
      1 CAE          0.0000     0.0000     0.0000 c3         1 2CK       0.139800
      2 CAF          1.5300     0.0000     0.0000 c3         1 2CK       0.034900
      3 CAI          2.0450     0.0000     1.4160 ca         1 2CK      -0.070300
      4 CAC          3.3650    -0.3560     1.6400 ca         1 2CK      -0.103000
      5 CAA          3.8780    -0.3640     2.9210 ca         1 2CK      -0.101000
      6 CAB          3.0710    -0.0150     3.9880 ca         1 2CK      -0.105000
      7 CAD          1.7540     0.3390     3.7660 ca         1 2CK      -0.099000
      8 CAJ          1.2370     0.3450     2.4800 ca         1 2CK      -0.082300
      9 CAG         -0.2070     0.7270     2.2890 c3         1 2CK       0.208100
     10 NAH         -0.4660     1.0760     0.8890 n7         1 2CK      -0.578200
     11 H1          -0.3520     0.1960    -1.0060 h1         1 2CK       0.009700
     12 H2          -0.3520    -0.9500     0.3830 h1         1 2CK       0.009700
     13 H3           1.8770    -0.8990    -0.4960 hc         1 2CK       0.026700
     14 H4           1.8770     0.8990    -0.4960 hc         1 2CK       0.026700
     15 H5           3.9980    -0.6300     0.8050 ha         1 2CK       0.104000
     16 H6           4.9110    -0.6420     3.0910 ha         1 2CK       0.101000
     17 H7           3.4700    -0.0200     4.9950 ha         1 2CK       0.102000
     18 H8           1.1220     0.6120     4.6020 ha         1 2CK       0.103000
     19 H9          -0.8370    -0.1090     2.5690 h1         1 2CK       0.011200
     20 H10         -0.4360     1.5790     2.9170 h1         1 2CK       0.011200
     21 H11         -1.4480     1.2170     0.7560 hn         1 2CK       0.250800
@<TRIPOS>BOND
     1     1     2 1   
     2     1    10 1   
     3     1    11 1   
     4     1    12 1   
     5     2     3 1   
     6     2    13 1   
     7     2    14 1   
     8     3     4 ar  
     9     3     8 ar  
    10     4     5 ar  
    11     4    15 1   
    12     5     6 ar  
    13     5    16 1   
    14     6     7 ar  
    15     6    17 1   
    16     7     8 ar  
    17     7    18 1   
    18     8     9 1   
    19     9    10 1   
    20     9    19 1   
    21     9    20 1   
    22    10    21 1   
@<TRIPOS>SUBSTRUCTURE
     1 2CK         1 TEMP              0 ****  ****    0 ROOT
