@<TRIPOS>MOLECULE
molecule
   17    17     1     0     0
SMALL
bcc


@<TRIPOS>ATOM
      1 C1           0.0000     0.0000     0.0000 ca         1 2CL       0.009700
      2 C2           1.3950     0.0000     0.0000 ca         1 2CL       0.035400
      3 C3           2.0910     0.0000     1.2080 ca         1 2CL      -0.130000
      4 C4           1.3940     0.0000     2.4160 ca         1 2CL      -0.153000
      5 C5          -0.0010     0.0000     2.4160 ca         1 2CL      -0.130000
      6 C6          -0.6980     0.0000     1.2070 ca         1 2CL       0.035400
      7 C7          -0.7490    -0.0000    -1.2980 c3         1 2CL      -0.158100
      8 C8          -1.0170     1.4070    -1.7620 c          1 2CL       0.902600
      9 Cl1          2.2980    -0.0010    -1.4710 cl         1 2CL      -0.106900
     10 Cl2         -2.4240     0.0010     1.2530 cl         1 2CL      -0.106900
     11 O1          -0.7250     2.4070    -1.1190 o          1 2CL      -0.840300
     12 O2          -1.6440     1.4530    -2.9640 o          1 2CL      -0.840300
     13 H3           3.1750     0.0000     1.2090 ha         1 2CL       0.125500
     14 H4           1.9360     0.0000     3.3540 ha         1 2CL       0.118000
     15 H5          -0.5420     0.0010     3.3540 ha         1 2CL       0.125500
     16 H71         -1.6910    -0.5170    -1.1660 hc         1 2CL       0.057700
     17 H72         -0.1620    -0.5170    -2.0480 hc         1 2CL       0.057700
@<TRIPOS>BOND
     1     1     2 ar
     2     1     6 ar
     3     1     7 1
     4     2     3 ar
     5     2     9 1
     6     3     4 ar
     7     3    13 1
     8     4     5 ar
     9     4    14 1
    10     5     6 ar
    11     5    15 1
    12     6    10 1
    13     7     8 1
    14     7    16 1
    15     7    17 1
    16     8    11 1
    17     8    12 1
@<TRIPOS>SUBSTRUCTURE
     1 2CL         1 TEMP              0 ****  ****    0 ROOT
