@<TRIPOS>MOLECULE
2CL
   17    17     1     0     0
SMALL
bcc


@<TRIPOS>ATOM
      1 C1         -0.0520   -0.0020   -0.0010 ca        1 2CL      0.042700
      2 C2          1.3580   -0.0290   -0.0180 ca        1 2CL      0.019400
      3 C3          2.1110   -0.0310    1.1580 ca        1 2CL     -0.131500
      4 C4          1.4700   -0.0140    2.3930 ca        1 2CL     -0.158000
      5 C5          0.0800    0.0020    2.4500 ca        1 2CL     -0.131500
      6 C6         -0.6670    0.0010    1.2680 ca        1 2CL      0.019400
      7 C7         -0.8370    0.0240   -1.2510 c3        1 2CL     -0.200100
      8 C8         -1.0400    1.4440   -1.8630 c         1 2CL      0.930600
      9 CL1         2.2150   -0.0620   -1.4930 cl        1 2CL     -0.106400
     10 CL2        -2.3670   -0.0030    1.4270 cl        1 2CL     -0.106400
     11 O1         -1.0580    2.4480   -1.1040 o         1 2CL     -0.826300
     12 O2         -1.2090    1.4750   -3.1130 o         1 2CL     -0.826300
     13 H3          3.2100   -0.0390    1.1100 ha        1 2CL      0.127000
     14 H4          2.0590   -0.0060    3.3200 ha        1 2CL      0.117000
     15 H5         -0.4300    0.0220    3.4240 ha        1 2CL      0.127000
     16 H71        -0.3410   -0.6060   -2.0340 hc        1 2CL      0.052700
     17 H72        -1.8650   -0.3890   -1.0850 hc        1 2CL      0.052700
@<TRIPOS>BOND
     1    1    2 ar  
     2    1    6 ar  
     3    1    7 1   
     4    2    3 ar  
     5    2    9 1   
     6    3    4 ar  
     7    3   13 1   
     8    4    5 ar  
     9    4   14 1   
    10    5    6 ar  
    11    5   15 1   
    12    6   10 1   
    13    7    8 1   
    14    7   16 1   
    15    7   17 1   
    16    8   11 1   
    17    8   12 1   
@<TRIPOS>SUBSTRUCTURE
     1 2CL         1 TEMP              0 ****  ****    0 ROOT
