@<TRIPOS>MOLECULE
molecule
   17    17     1     0     0
SMALL
bcc


@<TRIPOS>ATOM
      1 C1           0.0000     0.0000     0.0000 ca         1 2CM       0.168600
      2 C2           1.3880     0.0000     0.0000 ca         1 2CM      -0.086300
      3 C3          -0.6920    -0.0110     1.2060 ca         1 2CM       0.015400
      4 N4          -0.7010    -0.0000    -1.2090 nv         1 2CM      -0.983200
      5 C5           2.0770     0.0000     1.1970 ca         1 2CM      -0.125000
      6 C6           2.1420     0.0050    -1.3050 c3         1 2CM      -0.035800
      7 C7           0.0040    -0.0110     2.3990 ca         1 2CM      -0.126000
      8 Cl8         -2.4290    -0.0170     1.2120 cl         1 2CM      -0.108400
      9 C9           1.3870    -0.0050     2.3950 ca         1 2CM      -0.124000
     10 HN41        -0.9670    -0.8670    -1.6330 hn         1 2CM       0.431800
     11 HN42        -0.9720     0.8670    -1.6310 hn         1 2CM       0.431800
     12 HC5          3.1600     0.0020     1.1970 ha         1 2CM       0.133000
     13 HC61         1.8800     0.8910    -1.8700 hc         1 2CM       0.044033
     14 HC62         1.8820    -0.8780    -1.8760 hc         1 2CM       0.044033
     15 HC63         3.2070     0.0050    -1.1060 hc         1 2CM       0.044033
     16 HC7         -0.5350    -0.0170     3.3390 ha         1 2CM       0.142000
     17 HC9          1.9300    -0.0050     3.3320 ha         1 2CM       0.135000
@<TRIPOS>BOND
     1     1     2 ar  
     2     1     3 ar  
     3     1     4 1   
     4     2     5 ar  
     5     2     6 1   
     6     3     7 ar  
     7     3     8 1   
     8     4    10 1   
     9     4    11 1   
    10     5     9 ar  
    11     5    12 1   
    12     6    13 1   
    13     6    14 1   
    14     6    15 1   
    15     7     9 ar  
    16     7    16 1   
    17     9    17 1   
@<TRIPOS>SUBSTRUCTURE
     1 2CM         1 TEMP              0 ****  ****    0 ROOT
