@<TRIPOS>MOLECULE
2CN
   53    52     1     0     0
SMALL
bcc


@<TRIPOS>ATOM
      1 CAA        -0.0160    0.8810    0.9510 c2        1 2CN     -0.557000
      2 OAB        10.6970    4.3710   10.2240 o         1 2CN     -0.321000
      3 OAC        11.6640    2.9460    8.8620 os        1 2CN     -0.514000
      4 CAE        14.2900    2.0040    5.5880 c1        1 2CN     -0.208000
      5 CAF        13.5120    1.1650    5.9390 c1        1 2CN     -0.138000
      6 CAG        12.4230   -0.1110   12.4400 c1        1 2CN     -0.178000
      7 CAH        10.1460   -1.8040    6.1050 c2        1 2CN     -0.245000
      8 CAI        11.8890   -0.3290   11.0790 c3        1 2CN     -0.060000
      9 CAJ        11.1350    0.4820    6.5250 cx        1 2CN     -0.080000
     10 CAK        11.9100    2.3030   12.3510 c1        1 2CN     -0.137000
     11 CAL         0.2680    0.4160   -0.2350 c1        1 2CN      0.160000
     12 CAM         2.0840   -0.3800    3.6390 c3        1 2CN     -0.277000
     13 CAN         4.8660    0.3570    1.1810 c3        1 2CN     -0.211000
     14 CAO         5.3420    0.7920    2.5430 c3        1 2CN     -0.165000
     15 CAP         6.5550    0.0010    2.9870 c3        1 2CN     -0.134000
     16 CAQ         7.0140    0.4410    4.3620 c3        1 2CN     -0.242000
     17 CAR         8.1160   -0.4500    4.8340 c1        1 2CN     -0.009000
     18 OAT         9.0350    0.2510    5.4860 os        1 2CN     -0.152000
     19 SAU        12.3760    1.3260    8.9200 s4        1 2CN      1.411000
     20 CAW        12.4350    1.1720   12.9560 c2        1 2CN     -0.348000
     21 CAX        12.6030    0.1530    6.3320 cx        1 2CN     -0.016000
     22 CAY        10.1230   -0.4690    6.0410 c2        1 2CN      0.052000
     23 CAZ        11.8220    0.9180   10.2810 c2        1 2CN     -0.844000
     24 CBA        11.2230    2.0680   11.0580 c3        1 2CN     -0.071000
     25 HAA        -0.8690    1.5500    1.1450 ha        1 2CN      0.189500
     26 HAAA        0.5660    0.6540    1.8610 ha        1 2CN      0.189500
     27 HAAB        1.1120   -0.9180    3.6380 hc        1 2CN      0.069750
     28 HAE         9.3280   -2.4210    5.7100 ha        1 2CN      0.139500
     29 HAF        10.9920   -2.3340    6.5590 ha        1 2CN      0.139500
     30 HAG        10.8620   -0.7790   11.2010 hc        1 2CN      0.076500
     31 HAH        14.9760    2.7550    5.2910 ha        1 2CN      0.220000
     32 HAI        12.5260   -1.0940   10.5580 hc        1 2CN      0.076500
     33 HAJ        10.8160    1.5430    6.4170 hc        1 2CN      0.157000
     34 HAK        10.1480    1.8310   11.3280 hc        1 2CN      0.133000
     35 HAL         2.3370   -0.5840    0.3250 ha        1 2CN      0.008000
     36 HALA        1.9200    0.6880    3.9020 hc        1 2CN      0.069750
     37 HAM         2.7630   -0.8430    4.3880 hc        1 2CN      0.069750
     38 HAMA        2.0250   -1.0850   -0.0120 ha        1 2CN      0.008000
     39 HAN         3.9830    0.9630    0.8660 hc        1 2CN      0.070667
     40 HANA        2.5510   -0.4460    2.6290 hc        1 2CN      0.069750
     41 HAO         5.5950    1.8850    2.5230 hc        1 2CN      0.078500
     42 HAOA        4.5650   -0.7200    1.1940 hc        1 2CN      0.070667
     43 HAP         5.6740    0.4860    0.4210 hc        1 2CN      0.070667
     44 HAPA        4.5130    0.6570    3.2890 hc        1 2CN      0.078500
     45 HAQ         6.1760    0.3150    5.1040 hc        1 2CN      0.102000
     46 HAQA        6.3110   -1.0930    3.0050 hc        1 2CN      0.087500
     47 HAR         7.3880    0.1440    2.2500 hc        1 2CN      0.087500
     48 HARA        7.2850    1.5300    4.3480 hc        1 2CN      0.102000
     49 HAS        11.8550   -0.8660    8.1690 h1        1 2CN      0.147000
     50 HASA       12.8470   -0.8340    5.8770 hc        1 2CN      0.127000
     51 CAV        11.1700    3.2440   10.1050 c2        1 2CN      0.322000
     52 CAS        11.9920    0.1360    7.7120 cx        1 2CN     -0.616000
     53 BRAD       13.2110    1.4040   14.6710 br        1 2CN     -0.061000
@<TRIPOS>BOND
     1    1   11 1   
     2    1   25 1   
     3    1   26 1   
     4    2   51 1   
     5    3   19 1   
     6    3   51 1   
     7    4    5 1   
     8    4   31 1   
     9    5   21 1   
    10    6    8 1   
    11    6   20 1   
    12    7   22 1   
    13    7   28 1   
    14    7   29 1   
    15    8   23 1   
    16    8   30 1   
    17    8   32 1   
    18    9   21 1   
    19    9   22 1   
    20    9   33 1   
    21    9   52 1   
    22   10   20 1   
    23   10   24 1   
    24   12   27 1   
    25   12   36 1   
    26   12   37 1   
    27   12   40 1   
    28   13   14 1   
    29   13   39 1   
    30   13   42 1   
    31   13   43 1   
    32   14   15 1   
    33   14   41 1   
    34   14   44 1   
    35   15   16 1   
    36   15   46 1   
    37   15   47 1   
    38   16   17 1   
    39   16   45 1   
    40   16   48 1   
    41   17   18 1   
    42   18   22 1   
    43   19   23 1   
    44   19   52 1   
    45   20   53 1   
    46   21   50 1   
    47   21   52 1   
    48   23   24 1   
    49   24   34 1   
    50   24   51 1   
    51   35   38 1   
    52   49   52 1   
@<TRIPOS>SUBSTRUCTURE
     1 2CN         1 TEMP              0 ****  ****    0 ROOT
