@<TRIPOS>MOLECULE
molecule
   53    54     1     0     0
SMALL
bcc


@<TRIPOS>ATOM
      1 CAA          0.0000     0.0000     0.0000 c3         1 2CN      -0.092100
      2 OAB         13.3390     4.9160    12.0210 o          1 2CN      -0.810300
      3 OAC         12.5470     4.0890    10.1180 o          1 2CN      -0.810300
      4 CAE         11.6900    -0.0020     4.9360 ca         1 2CN      -0.095000
      5 CAF         12.2170    -0.0020     6.2150 ca         1 2CN      -0.156000
      6 CAG         13.5630    -0.1070    12.5760 ca         1 2CN      -0.109000
      7 CAH         10.3210    -0.0020     4.7530 ca         1 2CN      -0.234000
      8 CAI         13.0410     0.1170    11.3190 ca         1 2CN      -0.181000
      9 CAJ         10.0060     0.0010     7.1340 ca         1 2CN      -0.148000
     10 CAK         13.7260     2.2540    12.9640 ca         1 2CN      -0.050000
     11 CAL          1.5310     0.0000     0.0000 c3         1 2CN      -0.084400
     12 CAM          2.0400     0.0000     1.4420 c3         1 2CN      -0.081400
     13 CAN          3.5710    -0.0010     1.4430 c3         1 2CN      -0.082400
     14 CAO          4.0800     0.0000     2.8850 c3         1 2CN      -0.079400
     15 CAP          5.6110    -0.0010     2.8850 c3         1 2CN      -0.080400
     16 CAQ          6.1200     0.0000     4.3270 c3         1 2CN      -0.083400
     17 CAR          7.6510    -0.0010     4.3270 c3         1 2CN       0.141400
     18 OAT          8.1270     0.0000     5.6740 os         1 2CN      -0.332900
     19 SAU         12.1880     1.7070     9.2600 ss         1 2CN      -0.059000
     20 CAW         13.9040     0.9580    13.3960 ca         1 2CN      -0.051900
     21 CAX         11.3750     0.0000     7.3120 ca         1 2CN      -0.008300
     22 CAY          9.4740    -0.0010     5.8530 ca         1 2CN       0.138100
     23 CAZ         12.8540     1.4160    10.8650 ca         1 2CN       0.043900
     24 CBA         13.1990     2.4990    11.6930 ca         1 2CN      -0.097600
     25 HAA         -0.3610    -0.8840     0.5110 hc         1 2CN       0.031033
     26 HAAA        -0.3610    -0.0000    -1.0210 hc         1 2CN       0.031033
     27 HAAB        -0.3610     0.8850     0.5110 hc         1 2CN       0.031033
     28 HAE         12.3510    -0.0030     4.0780 ha         1 2CN       0.121000
     29 HAF         13.2910    -0.0020     6.3570 ha         1 2CN       0.136000
     30 HAG         13.7070    -1.1230    12.9260 ha         1 2CN       0.118000
     31 HAH          9.9080    -0.0020     3.7520 ha         1 2CN       0.123000
     32 HAI         12.7770    -0.7210    10.6860 ha         1 2CN       0.121000
     33 HAJ          9.3480     0.0020     7.9940 ha         1 2CN       0.149000
     34 HAK         13.9400     3.0810    13.6300 ha         1 2CN       0.171000
     35 HAL          1.8920     0.8850    -0.5110 hc         1 2CN       0.039200
     36 HALA         1.8920    -0.8850    -0.5110 hc         1 2CN       0.039200
     37 HAM          1.6790     0.8850     1.9530 hc         1 2CN       0.041700
     38 HAMA         1.6780    -0.8840     1.9530 hc         1 2CN       0.041700
     39 HAN          3.9320    -0.8860     0.9330 hc         1 2CN       0.040700
     40 HANA         3.9330     0.8830     0.9310 hc         1 2CN       0.040700
     41 HAO          3.7200     0.8850     3.3950 hc         1 2CN       0.043700
     42 HAOA         3.7190    -0.8840     3.3960 hc         1 2CN       0.043700
     43 HAP          5.9720    -0.8860     2.3750 hc         1 2CN       0.041200
     44 HAPA         5.9730     0.8830     2.3740 hc         1 2CN       0.041200
     45 HAQ          5.7600     0.8850     4.8370 hc         1 2CN       0.055200
     46 HAQA         5.7590    -0.8840     4.8380 hc         1 2CN       0.055200
     47 HAR          8.0130     0.8830     3.8160 h1         1 2CN       0.032200
     48 HARA         8.0120    -0.8860     3.8180 h1         1 2CN       0.032200
     49 HAS         12.9090    -0.5110     8.6980 h1         1 2CN       0.058200
     50 HASA        11.2760    -0.5090     9.3770 h1         1 2CN       0.058200
     51 CAV         13.0060     3.8810    11.2240 c          1 2CN       0.880200
     52 CAS         11.9540     0.0010     8.7040 c3         1 2CN      -0.060000
     53 BrAD        14.6180     0.6300    15.1160 br         1 2CN      -0.155100
@<TRIPOS>BOND
     1     1    11 1
     2     1    25 1
     3     1    26 1
     4     1    27 1
     5     2    51 1
     6     3    51 1
     7    53    20 1
     8     4     5 ar
     9     4     7 ar
    10     4    28 1
    11     5    21 ar
    12     5    29 1
    13     6     8 ar
    14     6    20 ar
    15     6    30 1
    16     7    22 ar
    17     7    31 1
    18     8    23 ar
    19     8    32 1
    20     9    21 ar
    21     9    22 ar
    22     9    33 1
    23    10    20 ar
    24    10    24 ar
    25    10    34 1
    26    11    12 1
    27    11    35 1
    28    11    36 1
    29    12    13 1
    30    12    37 1
    31    12    38 1
    32    13    14 1
    33    13    39 1
    34    13    40 1
    35    14    15 1
    36    14    41 1
    37    14    42 1
    38    15    16 1
    39    15    43 1
    40    15    44 1
    41    16    17 1
    42    16    45 1
    43    16    46 1
    44    17    18 1
    45    17    47 1
    46    17    48 1
    47    52    19 1
    48    52    21 1
    49    52    49 1
    50    52    50 1
    51    18    22 1
    52    19    23 1
    53    51    24 1
    54    23    24 ar
@<TRIPOS>SUBSTRUCTURE
     1 2CN         1 TEMP              0 ****  ****    0 ROOT
