@<TRIPOS>MOLECULE
molecule
   19    19     1     0     0
SMALL
bcc


@<TRIPOS>ATOM
      1 NAB          0.0000     0.0000     0.0000 nv         1 2CQ      -0.982200
      2 CAH          1.4000     0.0000     0.0000 ca         1 2CQ       0.155600
      3 CAE          2.0960     0.0000     1.2000 ca         1 2CQ      -0.136000
      4 CAG          3.4780    -0.0000     1.1990 ca         1 2CQ      -0.078300
      5 CAA          4.2320    -0.0010     2.5040 c3         1 2CQ      -0.046800
      6 CAJ          4.1720     0.0010     0.0010 ca         1 2CQ       0.023400
      7 Cl           5.9090     0.0020     0.0070 cl         1 2CQ      -0.116400
      8 CAF          3.4860     0.0010    -1.2000 ca         1 2CQ      -0.133000
      9 CAI          2.0990    -0.0040    -1.2070 ca         1 2CQ       0.151600
     10 NAC          1.4030    -0.0090    -2.4210 nv         1 2CQ      -0.979200
     11 H1          -0.5000    -0.8670     0.0210 hn         1 2CQ       0.427800
     12 H2          -0.5000     0.8670     0.0170 hn         1 2CQ       0.427800
     13 H3           1.5560     0.0000     2.1390 ha         1 2CQ       0.141000
     14 H4           3.5280    -0.0030     3.3280 hc         1 2CQ       0.047367
     15 H5           4.8550    -0.8850     2.5600 hc         1 2CQ       0.047367
     16 H6           4.8530     0.8840     2.5630 hc         1 2CQ       0.047367
     17 H7           4.0320    -0.0000    -2.1350 ha         1 2CQ       0.148000
     18 H8           1.1690     0.8560    -2.8670 hn         1 2CQ       0.427800
     19 H9           1.1720    -0.8770    -2.8620 hn         1 2CQ       0.427800
@<TRIPOS>BOND
     1     1     2 1   
     2    10     9 1   
     3     2     9 ar  
     4     2     3 ar  
     5     9     8 ar  
     6     3     4 ar  
     7     8     6 ar  
     8     4     6 ar  
     9     4     5 1   
    10     6     7 1   
    11     1    11 1   
    12     1    12 1   
    13     3    13 1   
    14     5    14 1   
    15     5    15 1   
    16     5    16 1   
    17     8    17 1   
    18    10    18 1   
    19    10    19 1   
@<TRIPOS>SUBSTRUCTURE
     1 2CQ         1 TEMP              0 ****  ****    0 ROOT
