@<TRIPOS>MOLECULE
molecule
   75    79     1     0     0
SMALL
bcc


@<TRIPOS>ATOM
      1 C1           0.0000     0.0000     0.0000 c3         1 2CS      -0.077100
      2 C2           1.5300     0.0000     0.0000 c3         1 2CS      -0.159000
      3 C3           2.0330     0.0000     1.4200 c          1 2CS       0.902600
      4 O4           2.7270    -0.9070     1.8150 o          1 2CS      -0.842300
      5 O5           1.7090     1.0060     2.2460 o          1 2CS      -0.842300
      6 C7           2.0390    -1.2490    -0.7210 c3         1 2CS      -0.015200
      7 C8           1.6750    -1.1700    -2.1820 cc         1 2CS       0.057700
      8 C11         -1.9340    -1.7770    -2.5990 ca         1 2CS      -0.100300
      9 C12         -2.7620    -2.7400    -3.1460 ca         1 2CS      -0.103500
     10 C13         -3.9620    -2.3720    -3.7240 ca         1 2CS      -0.127000
     11 C14         -2.3080    -0.4470    -2.6250 ca         1 2CS      -0.103500
     12 C15         -3.5090    -0.0780    -3.2030 ca         1 2CS      -0.127000
     13 C16         -4.3350    -1.0390    -3.7550 ca         1 2CS       0.029400
     14 C19         -0.4480    -1.6040    -5.0910 ca         1 2CS      -0.105000
     15 C20         -0.1570    -1.2670    -6.3930 ca         1 2CS      -0.211000
     16 C21          1.7260    -0.7950    -4.4130 ca         1 2CS      -0.034800
     17 C22          2.0140    -0.4640    -5.7390 ca         1 2CS      -0.121000
     18 C27          2.0830     0.3180   -10.4780 ca         1 2CS      -0.224300
     19 C30          0.4030    -0.0460   -12.6100 ca         1 2CS       0.423600
     20 C31         -0.4480    -0.2270   -13.7130 ca         1 2CS      -0.163300
     21 C32         -0.0320     0.1440   -14.9560 ca         1 2CS      -0.126000
     22 C33          1.2280     0.7020   -15.1540 ca         1 2CS      -0.134000
     23 C34          2.0800     0.8930   -14.1100 ca         1 2CS      -0.108000
     24 C28          2.5360     0.7020   -11.7080 ca         1 2CS      -0.088000
     25 C29          1.6840     0.5210   -12.8150 ca         1 2CS      -0.157300
     26 N35          0.0210    -0.4010   -11.3790 nb         1 2CS      -0.692000
     27 C26          0.8110    -0.2340   -10.3460 ca         1 2CS       0.445600
     28 C25          0.3310    -0.6520    -8.9800 c3         1 2CS       0.092100
     29 C23          1.0730    -0.7000    -6.7210 ca         1 2CS       0.099100
     30 C18          0.4850    -1.3690    -4.0860 ca         1 2CS      -0.071200
     31 C36          2.4710    -0.6840    -3.1540 cd         1 2CS      -0.082600
     32 S37          4.0980    -0.0360    -2.9500 ss         1 2CS      -0.242700
     33 C38          5.1540    -1.4660    -3.3120 c3         1 2CS       0.003100
     34 C41          6.6170    -1.0940    -3.0600 c3         1 2CS      -0.078767
     35 C39          4.7600    -2.6320    -2.4040 c3         1 2CS      -0.078767
     36 C40          4.9750    -1.8740    -4.7750 c3         1 2CS      -0.078767
     37 C6           2.0400     1.2480    -0.7220 c3         1 2CS      -0.077100
     38 N9           0.4830    -1.5890    -2.7250 na         1 2CS      -0.069400
     39 Cl17        -5.8430    -0.5770    -4.4810 cl         1 2CS      -0.125400
     40 H11         -0.3610    -0.9580     0.3550 hc         1 2CS       0.029533
     41 H12A        -0.3610     0.7860     0.6520 hc         1 2CS       0.029533
     42 H13A        -0.3610     0.1710    -1.0070 hc         1 2CS       0.029533
     43 H71          3.1160    -1.3110    -0.6200 hc         1 2CS       0.072700
     44 H72          1.5840    -2.1300    -0.2830 hc         1 2CS       0.072700
     45 H101        -0.5350    -3.2590    -1.9810 h1         1 2CS       0.080700
     46 H102        -0.5930    -1.8250    -0.9460 h1         1 2CS       0.080700
     47 H12         -2.4700    -3.7830    -3.1220 ha         1 2CS       0.152000
     48 H13         -4.6100    -3.1260    -4.1540 ha         1 2CS       0.142000
     49 H14         -1.6610     0.3060    -2.1930 ha         1 2CS       0.152000
     50 H15         -3.8010     0.9650    -3.2250 ha         1 2CS       0.142000
     51 H19         -1.4070    -2.0440    -4.8470 ha         1 2CS       0.134000
     52 H20         -0.8880    -1.4480    -7.1710 ha         1 2CS       0.127000
     53 H22          2.9700    -0.0230    -5.9950 ha         1 2CS       0.147000
     54 H32         -0.6920     0.0020   -15.8040 ha         1 2CS       0.128000
     55 H33          1.5350     0.9880   -16.1530 ha         1 2CS       0.125000
     56 H34          3.0580     1.3280   -14.2770 ha         1 2CS       0.131000
     57 H28          3.5230     1.1330   -11.8290 ha         1 2CS       0.139000
     58 H251        -0.5650    -0.0990    -8.7280 h1         1 2CS       0.058200
     59 H252         0.1110    -1.7130    -8.9840 h1         1 2CS       0.058200
     60 H411         7.2480    -1.9480    -3.2770 hc         1 2CS       0.039256
     61 H412         6.8950    -0.2670    -3.7010 hc         1 2CS       0.039256
     62 H413         6.7430    -0.8060    -2.0230 hc         1 2CS       0.039256
     63 H391         3.7800    -2.9960    -2.6880 hc         1 2CS       0.039256
     64 H392         5.4840    -3.4310    -2.5070 hc         1 2CS       0.039256
     65 H393         4.7360    -2.2970    -1.3740 hc         1 2CS       0.039256
     66 H401         4.0810    -2.4780    -4.8750 hc         1 2CS       0.039256
     67 H402         5.8360    -2.4480    -5.0970 hc         1 2CS       0.039256
     68 H403         4.8830    -0.9870    -5.3890 hc         1 2CS       0.039256
     69 H61          1.8070     2.1270    -0.1330 hc         1 2CS       0.029533
     70 H62          3.1130     1.1760    -0.8540 hc         1 2CS       0.029533
     71 H63          1.5620     1.3260    -1.6910 hc         1 2CS       0.029533
     72 C10         -0.6250    -2.1790    -1.9700 c3         1 2CS       0.074600
     73 O24          1.3490    -0.3800    -8.0140 os         1 2CS      -0.343900
     74 H27          2.7130     0.4430    -9.6060 ha         1 2CS       0.166000
     75 H31         -1.4320    -0.6600   -13.5760 ha         1 2CS       0.146000
@<TRIPOS>BOND
     1     1     2 1   
     2     1    40 1   
     3     1    41 1   
     4     1    42 1   
     5     2     6 1   
     6     2    37 1   
     7     2     3 1   
     8     3     4 1   
     9     3     5 1   
    10     6     7 1   
    11     6    43 1   
    12     6    44 1   
    13     7    31 2   
    14     7    38 1   
    15    72     8 1   
    16    72    38 1   
    17    72    45 1   
    18    72    46 1   
    19     8     9 ar  
    20     8    11 ar  
    21     9    10 ar  
    22     9    47 1   
    23    10    13 ar  
    24    10    48 1   
    25    11    12 ar  
    26    11    49 1   
    27    12    13 ar  
    28    12    50 1   
    29    13    39 1   
    30    14    15 ar  
    31    14    30 ar  
    32    14    51 1   
    33    15    29 ar  
    34    15    52 1   
    35    16    17 ar  
    36    16    31 1   
    37    16    30 ar  
    38    17    29 ar  
    39    17    53 1   
    40    18    24 ar  
    41    18    27 ar  
    42    18    74 1   
    43    19    20 ar  
    44    19    25 ar  
    45    19    26 ar  
    46    20    21 ar  
    47    20    75 1   
    48    21    22 ar  
    49    21    54 1   
    50    22    23 ar  
    51    22    55 1   
    52    23    25 ar  
    53    23    56 1   
    54    24    25 ar  
    55    24    57 1   
    56    26    27 ar  
    57    27    28 1   
    58    28    73 1   
    59    28    58 1   
    60    28    59 1   
    61    73    29 1   
    62    30    38 1   
    63    31    32 1   
    64    32    33 1   
    65    33    36 1   
    66    33    35 1   
    67    33    34 1   
    68    34    60 1   
    69    34    61 1   
    70    34    62 1   
    71    35    63 1   
    72    35    64 1   
    73    35    65 1   
    74    36    66 1   
    75    36    67 1   
    76    36    68 1   
    77    37    69 1   
    78    37    70 1   
    79    37    71 1   
@<TRIPOS>SUBSTRUCTURE
     1 2CS         1 TEMP              0 ****  ****    0 ROOT
