@<TRIPOS>MOLECULE
2CS
   75    74     1     0     0
SMALL
bcc


@<TRIPOS>ATOM
      1 C1          1.7630    0.7360   -2.2700 c3        1 2CS     -0.205000
      2 C2          1.0370   -0.2990   -1.4250 c3        1 2CS     -0.052000
      3 C3         -0.3400    0.2350   -1.0580 c2        1 2CS      0.269000
      4 O4         -0.8880   -0.2170    0.1370 os        1 2CS     -0.221000
      5 O5         -0.9230    1.1560   -1.6300 o         1 2CS     -0.326000
      6 C7          0.9350   -1.6320   -2.1800 c3        1 2CS     -0.084000
      7 C8          0.4710   -1.5710   -3.5850 c2        1 2CS     -0.096000
      8 C11        -2.5110   -1.3210   -1.9590 c1        1 2CS      0.107000
      9 C12        -2.6400   -0.4140    3.1340 c2        1 2CS     -0.190000
     10 C13        -3.2800   -1.2370    3.9000 c1        1 2CS     -0.177000
     11 C14        -2.9730   -1.1410   -0.6730 c2        1 2CS     -0.387000
     12 C15        -2.1540   -0.6350    0.3100 c1        1 2CS     -0.069000
     13 C16        -3.9100   -2.0940    4.6510 c2        1 2CS     -0.161000
     14 C19        -2.2250   -1.5280   -6.1050 c2        1 2CS     -0.102000
     15 C20        -2.0790   -1.5990   -7.4420 c2        1 2CS     -0.164000
     16 C21         0.2910   -1.6450   -5.8790 c2        1 2CS     -0.204000
     17 C22         0.4720   -1.6490   -7.2380 c1        1 2CS     -0.167000
     18 C27         2.4890    0.1040   -9.3920 c2        1 2CS     -0.200000
     19 C30         4.4180    1.1750  -11.1630 c2        1 2CS     -0.050000
     20 C31         5.3130    1.6870  -12.0350 c2        1 2CS     -0.229000
     21 C32         4.8340    4.0760  -14.3580 c1        1 2CS      0.390500
     22 C33         4.6430    3.6270  -15.5510 c1        1 2CS     -0.782000
     23 C34         4.4500    3.1680  -16.7380 c1        1 2CS      0.390500
     24 C28         2.3450    1.3900   -9.7500 c2        1 2CS     -0.136000
     25 C29         3.3070    2.0630  -10.6570 c3        1 2CS     -0.134000
     26 N35         4.5290   -0.1690  -10.7280 n2        1 2CS     -0.164000
     27 C26         3.6350   -0.6390   -9.9160 c2        1 2CS     -0.025000
     28 C25        -0.7400   -1.6540  -10.3980 c1        1 2CS     -0.082000
     29 C23        -0.7440   -1.8570   -8.0650 c3        1 2CS      0.028000
     30 C18        -1.0430   -1.5900   -5.2810 c2        1 2CS      0.023000
     31 C36         1.2270   -1.6250   -4.7690 c2        1 2CS     -0.199000
     32 S37         2.8930   -1.6500   -4.7320 ss        1 2CS      0.255000
     33 C38         3.4620   -2.0620   -6.3750 c3        1 2CS     -0.254000
     34 C41         4.7470   -1.2950   -6.5480 c3        1 2CS     -0.201000
     35 C39         3.6610   -3.5570   -6.5050 c3        1 2CS     -0.144000
     36 C40         3.8610   -3.9790   -7.9400 c3        1 2CS     -0.213000
     37 C6          1.8200   -0.5460   -0.1390 c3        1 2CS     -0.205000
     38 N9         -0.9180   -1.5480   -3.9250 na        1 2CS      0.150000
     39 CL17       -5.5840   -1.9850    4.9820 cl        1 2CS     -0.092000
     40 H11         1.1180    1.0520   -3.1260 hc        1 2CS      0.083000
     41 H12A        2.7110    0.3040   -2.6720 hc        1 2CS      0.083000
     42 H13A        2.0010    1.6360   -1.6550 hc        1 2CS      0.083000
     43 H71         1.9640   -2.0930   -2.2000 hc        1 2CS      0.108500
     44 H72         0.2610   -2.3130   -1.5890 hc        1 2CS      0.108500
     45 H101       -0.1610   -0.3190    2.3580 ha        1 2CS      0.000500
     46 H102        0.5050   -0.2590    2.4710 ha        1 2CS      0.000500
     47 H12        -2.1610    0.4940    3.5270 ha        1 2CS      0.198000
     48 H13        -2.5000   -0.5660    1.9890 ha        1 2CS      0.198000
     49 H14        -3.9890   -1.4560   -0.4070 ha        1 2CS      0.147000
     50 H15        -3.4520   -2.9620    5.1360 h4        1 2CS      0.141000
     51 H19        -3.2030   -1.4000   -5.6170 ha        1 2CS      0.151000
     52 H20        -2.9340   -1.5120   -8.1270 ha        1 2CS      0.134000
     53 H22        -0.7120   -2.9480   -8.3850 h1        1 2CS      0.154000
     54 H32         5.2360    2.7270  -12.3780 ha        1 2CS      0.118000
     55 H33         2.7460    2.4810  -11.5390 hc        1 2CS      0.100000
     56 H34         3.7640    2.9380  -10.1160 hc        1 2CS      0.100000
     57 H28         1.5100    2.0070   -9.3870 ha        1 2CS      0.134000
     58 H251        3.7540   -1.6920   -9.5850 h4        1 2CS      0.160000
     59 H252       -0.6300   -0.8920  -11.2150 ha        1 2CS      0.024000
     60 H411        4.5690   -0.1990   -6.4220 hc        1 2CS      0.080333
     61 H412        5.1590   -1.4680   -7.5740 hc        1 2CS      0.080333
     62 H413        5.5120   -1.6200   -5.8010 hc        1 2CS      0.080333
     63 H391        4.7750   -3.5040   -8.3730 hc        1 2CS      0.072667
     64 H392        4.5450   -3.8760   -5.8920 hc        1 2CS      0.083500
     65 H393        2.7600   -4.0830   -6.0920 hc        1 2CS      0.083500
     66 H401        2.6940   -1.7220   -7.1310 h1        1 2CS      0.182000
     67 H402        3.9780   -5.0880   -8.0010 hc        1 2CS      0.072667
     68 H403        2.9810   -3.6810   -8.5620 hc        1 2CS      0.072667
     69 H61         1.3240   -1.3420    0.4670 hc        1 2CS      0.083000
     70 H62         2.8640   -0.8570   -0.3790 hc        1 2CS      0.083000
     71 H63         1.8480    0.3870    0.4740 hc        1 2CS      0.083000
     72 C10        -1.8530   -1.4480   -2.9680 c1        1 2CS     -0.346000
     73 O24        -0.6360   -1.0180   -9.2610 os        1 2CS     -0.147000
     74 H27         1.7860   -0.4290   -8.7200 ha        1 2CS      0.202000
     75 H31         6.1510    1.1080  -12.4400 ha        1 2CS      0.118000
@<TRIPOS>BOND
     1    1    2 1   
     2    1   40 1   
     3    1   41 1   
     4    1   42 1   
     5    2    3 1   
     6    2    6 1   
     7    2   37 1   
     8    3    4 1   
     9    3    5 1   
    10    4   12 1   
    11    6    7 1   
    12    6   43 1   
    13    6   44 1   
    14    7   31 1   
    15    7   38 1   
    16    8   11 1   
    17    8   72 1   
    18    9   10 1   
    19    9   47 1   
    20    9   48 1   
    21   10   13 1   
    22   11   12 1   
    23   11   49 1   
    24   13   39 1   
    25   13   50 1   
    26   14   15 1   
    27   14   30 1   
    28   14   51 1   
    29   15   29 1   
    30   15   52 1   
    31   16   17 1   
    32   16   30 1   
    33   16   31 1   
    34   17   29 1   
    35   18   24 1   
    36   18   27 1   
    37   18   74 1   
    38   19   20 1   
    39   19   25 1   
    40   19   26 1   
    41   20   54 1   
    42   20   75 1   
    43   21   22 1   
    44   22   23 1   
    45   24   25 1   
    46   24   57 1   
    47   25   55 1   
    48   25   56 1   
    49   26   27 1   
    50   27   58 1   
    51   28   59 1   
    52   28   73 1   
    53   29   53 1   
    54   29   73 1   
    55   30   38 1   
    56   31   32 1   
    57   32   33 1   
    58   33   34 1   
    59   33   35 1   
    60   33   66 1   
    61   34   60 1   
    62   34   61 1   
    63   34   62 1   
    64   35   36 1   
    65   35   64 1   
    66   35   65 1   
    67   36   63 1   
    68   36   67 1   
    69   36   68 1   
    70   37   69 1   
    71   37   70 1   
    72   37   71 1   
    73   38   72 1   
    74   45   46 1   
@<TRIPOS>SUBSTRUCTURE
     1 2CS         1 TEMP              0 ****  ****    0 ROOT
