@<TRIPOS>MOLECULE
molecule
   41    42     1     0     0
SMALL
bcc


@<TRIPOS>ATOM
      1 CAA          0.0000     0.0000     0.0000 c3         1 2CT       0.133700
      2 CAB          3.0680    -0.0070     6.0530 c3         1 2CT       0.135700
      3 OAC          5.6290     1.1990     0.7410 o          1 2CT      -0.475100
      4 OAD          9.8140     4.4770    -2.1740 o          1 2CT      -0.892833
      5 OAE          7.6660     3.4740    -1.0360 o          1 2CT      -0.892833
      6 OAF          8.9880     2.1600    -2.7380 o          1 2CT      -0.892833
      7 CAG         11.7260     1.3030     1.6720 ca         1 2CT      -0.145000
      8 CAH         12.3090     2.0250     0.6470 ca         1 2CT      -0.211000
      9 CAI         10.3550     1.1280     1.7010 ca         1 2CT      -0.276000
     10 CAJ          1.2900     0.0030     2.3750 ca         1 2CT      -0.228000
     11 CAK         11.5240     2.5780    -0.3480 ca         1 2CT      -0.050000
     12 CAL          1.9150     0.0000     3.6080 ca         1 2CT      -0.178000
     13 CAM          3.4300     0.0020     1.2830 ca         1 2CT      -0.121000
     14 CAN          7.6810     0.7470     1.8150 c3         1 2CT       0.078400
     15 NAO          5.4580    -0.0070     2.5960 ns         1 2CT      -0.495100
     16 OAP          1.4290     0.0000     0.0000 os         1 2CT      -0.311900
     17 OAQ          3.9110    -0.0080     4.9000 os         1 2CT      -0.331900
     18 OAR          8.2170     1.5040     0.7280 os         1 2CT      -0.209900
     19 CAS          6.1830     0.6630     1.6780 c          1 2CT       0.628100
     20 CAT          2.0460     0.0020     1.2120 ca         1 2CT       0.125100
     21 CAU          4.0600    -0.0070     2.5200 ca         1 2CT       0.100600
     22 CAV          3.2980    -0.0050     3.6860 ca         1 2CT       0.052100
     23 CAW          9.5660     1.6760     0.7010 ca         1 2CT       0.173100
     24 CAX         10.1520     2.4090    -0.3200 ca         1 2CT      -0.141500
     25 PAY          9.1230     3.1290    -1.6290 p5         1 2CT       1.043000
     26 HAA         -0.3610    -0.0020    -1.0210 h1         1 2CT       0.030367
     27 HAAA        -0.3610    -0.8840     0.5120 h1         1 2CT       0.030367
     28 HAAB        -0.3610     0.8850     0.5090 h1         1 2CT       0.030367
     29 HAB          3.6790    -0.0100     6.9480 h1         1 2CT       0.029700
     30 HABA         2.4400    -0.8890     6.0420 h1         1 2CT       0.029700
     31 HABB         2.4450     0.8800     6.0450 h1         1 2CT       0.029700
     32 HAG         12.3430     0.8730     2.4510 ha         1 2CT       0.074000
     33 HAH         13.3840     2.1600     0.6240 ha         1 2CT       0.081000
     34 HAI          9.8980     0.5620     2.5040 ha         1 2CT       0.082000
     35 HAJ          0.2090     0.0050     2.3170 ha         1 2CT       0.118000
     36 HAK         11.9830     3.1460    -1.1470 ha         1 2CT       0.151000
     37 HAL          1.3220     0.0010     4.5150 ha         1 2CT       0.118000
     38 HAM          4.0200     0.0000     0.3750 ha         1 2CT       0.208000
     39 HAN          7.9310     1.2320     2.7510 h1         1 2CT       0.027200
     40 HANA         8.1020    -0.2510     1.8020 h1         1 2CT       0.027200
     41 HNAO         5.9210    -0.5390     3.3060 hn         1 2CT       0.316500
@<TRIPOS>BOND
     1    16     1 1   
     2     1    26 1   
     3     1    27 1   
     4     1    28 1   
     5     2    17 1   
     6     2    29 1   
     7     2    30 1   
     8     2    31 1   
     9    19     3 2   
    10    25     4 1   
    11    25     5 1   
    12     6    25 1   
    13     9     7 ar  
    14     7     8 ar  
    15     7    32 1   
    16    11     8 ar  
    17     8    33 1   
    18     9    23 ar  
    19     9    34 1   
    20    12    10 ar  
    21    10    20 ar  
    22    10    35 1   
    23    24    11 ar  
    24    11    36 1   
    25    22    12 ar  
    26    12    37 1   
    27    21    13 ar  
    28    13    20 ar  
    29    13    38 1   
    30    18    14 1   
    31    14    19 1   
    32    14    39 1   
    33    14    40 1   
    34    15    19 1   
    35    15    21 1   
    36    15    41 1   
    37    20    16 1   
    38    17    22 1   
    39    18    23 1   
    40    22    21 ar  
    41    23    24 ar  
    42    24    25 1   
@<TRIPOS>SUBSTRUCTURE
     1 2CT         1 TEMP              0 ****  ****    0 ROOT
