@<TRIPOS>MOLECULE
molecule
   53    56     1     0     0
SMALL
bcc


@<TRIPOS>ATOM
      1 C15          0.0000     0.0000     0.0000 ca         1 2CU       0.044700
      2 C16         -0.7650     0.0000    -1.2990 c3         1 2CU      -0.053800
      3 C18         -2.1150     0.0110     1.4960 cc         1 2CU       0.280800
      4 C20         -2.4410     0.0160     2.8140 cd         1 2CU      -0.171600
      5 C24         -3.7650     0.0210     3.3130 c          1 2CU       0.712300
      6 C22          0.0660     0.0060     2.4170 ca         1 2CU       0.546600
      7 C10          4.0550     0.0010     2.4890 c3         1 2CU       0.071400
      8 N02          7.9550     0.9950     5.4270 n3         1 2CU      -0.732600
      9 C03          8.4190     1.1330     4.0400 c3         1 2CU       0.144300
     10 C04          7.8310     0.0000     3.1920 c3         1 2CU       0.107500
     11 N05          6.3690     0.0010     3.3620 n          1 2CU      -0.494800
     12 C06          5.8280     0.0010     4.7290 c3         1 2CU       0.107500
     13 C07          6.4950     1.1340     5.5160 c3         1 2CU       0.144300
     14 C08          5.5490     0.0000     2.2930 c          1 2CU       0.658100
     15 O09          6.0130    -0.0000     1.1720 o          1 2CU      -0.580100
     16 O11          3.4060     0.0010     1.2150 os         1 2CU      -0.390100
     17 C12          2.0500     0.0000     1.2150 ca         1 2CU       0.699600
     18 C13          1.3640     0.0000     0.0000 ca         1 2CU      -0.122900
     19 Cl1          2.2390    -0.0010    -1.4990 cl         1 2CU      -0.064400
     20 C17         -0.6860     0.0060     1.2390 ca         1 2CU      -0.264100
     21 N19         -3.0650     0.0120     0.4840 nv         1 2CU      -0.959600
     22 S21         -1.0030     0.0130     3.8160 ss         1 2CU      -0.153900
     23 N23          1.4020     0.0010     2.3600 nb         1 2CU      -0.768000
     24 O25         -4.7070     0.0200     2.5400 o          1 2CU      -0.597100
     25 N26         -3.9850     0.0240     4.6420 ns         1 2CU      -0.551900
     26 C27         -5.3560     0.0290     5.1580 cx         1 2CU       0.061700
     27 C28         -5.5860    -0.5400     6.5600 cx         1 2CU      -0.157400
     28 C29         -5.6700     0.9710     6.3220 cx         1 2CU      -0.157400
     29 H1          -0.0690    -0.0050    -2.1280 hc         1 2CU       0.060367
     30 H2          -1.3930    -0.8810    -1.3480 hc         1 2CU       0.060367
     31 H3          -1.3840     0.8880    -1.3530 hc         1 2CU       0.060367
     32 H4           3.7630    -0.8840     3.0430 h1         1 2CU       0.067200
     33 H5           3.7640     0.8850     3.0430 h1         1 2CU       0.067200
     34 H6           8.2980     1.8080     7.3270 h1         1 2CU       0.034033
     35 H7           8.3900     2.9650     5.9930 h1         1 2CU       0.034033
     36 H8           9.7020     1.8060     6.2510 h1         1 2CU       0.034033
     37 H10          8.0920     2.0870     3.6440 h1         1 2CU       0.043450
     38 H11          9.5010     1.0780     4.0160 h1         1 2CU       0.043450
     39 H12          8.2350    -0.9490     3.5230 h1         1 2CU       0.063450
     40 H13          8.0750     0.1630     2.1490 h1         1 2CU       0.063450
     41 H14          4.7570     0.1640     4.6950 h1         1 2CU       0.063450
     42 H15          6.0430    -0.9480     5.2050 h1         1 2CU       0.063450
     43 H16          6.1910     1.0790     6.5550 h1         1 2CU       0.043450
     44 H17          6.1970     2.0880     5.0970 h1         1 2CU       0.043450
     45 H18         -3.4260    -0.8540     0.1360 hn         1 2CU       0.443800
     46 H19         -3.4200     0.8790     0.1320 hn         1 2CU       0.443800
     47 H20         -3.2120     0.0060     5.2770 hn         1 2CU       0.316500
     48 H21         -6.1760    -0.1250     4.4670 h1         1 2CU       0.124700
     49 H22         -4.6980    -0.8830     7.0760 hc         1 2CU       0.078200
     50 H23         -6.5340    -1.0420     6.7110 hc         1 2CU       0.078200
     51 H24         -6.6690     1.3900     6.3290 hc         1 2CU       0.078200
     52 H25         -4.8330     1.5500     6.6940 hc         1 2CU       0.078200
     53 C01          8.6310     1.9560     6.3070 c3         1 2CU       0.153100
@<TRIPOS>BOND
     1    53     8 1   
     2     8     9 1   
     3     8    13 1   
     4     9    10 1   
     5    10    11 1   
     6    13    12 1   
     7    12    11 1   
     8    11    14 1   
     9    14    15 2   
    10    14     7 1   
    11     7    16 1   
    12    16    17 1   
    13    23    17 ar  
    14    23     6 ar  
    15    17    18 ar  
    16    22     6 1   
    17    22     4 1   
    18     6    20 ar  
    19    18    19 1   
    20    18     1 ar  
    21    27    28 1   
    22    27    26 1   
    23    28    26 1   
    24    25    26 1   
    25    25     5 1   
    26    20     1 ar  
    27    20     3 1   
    28     4     5 1   
    29     4     3 2   
    30     1     2 1   
    31     5    24 2   
    32     3    21 1   
    33     2    29 1   
    34     2    30 1   
    35     2    31 1   
    36     7    32 1   
    37     7    33 1   
    38    53    34 1   
    39    53    35 1   
    40    53    36 1   
    41     9    37 1   
    42     9    38 1   
    43    10    39 1   
    44    10    40 1   
    45    12    41 1   
    46    12    42 1   
    47    13    43 1   
    48    13    44 1   
    49    21    45 1   
    50    21    46 1   
    51    25    47 1   
    52    26    48 1   
    53    27    49 1   
    54    27    50 1   
    55    28    51 1   
    56    28    52 1   
@<TRIPOS>SUBSTRUCTURE
     1 2CU         1 TEMP              0 ****  ****    0 ROOT
