@<TRIPOS>MOLECULE
2CV
   63    62     1     0     0
SMALL
bcc


@<TRIPOS>ATOM
      1 C9           0.0000     0.0000     0.0000 c3         1 2CV      -0.030400
      2 C12          1.5300     0.0000     0.0000 c3         1 2CV      -0.029400
      3 C15          2.0400     0.0000     1.4430 c3         1 2CV      -0.029400
      4 C18          3.5700    -0.0010     1.4420 c3         1 2CV      -0.027400
      5 C21          4.0800    -0.0000     2.8850 c3         1 2CV      -0.032400
      6 C24          5.6110    -0.0010     2.8840 c3         1 2CV      -0.015400
      7 C27          6.1200    -0.0000     4.3270 c3         1 2CV      -0.106400
      8 C30          7.6280    -0.0010     4.3270 c          1 2CV       0.576100
      9 N33          8.3020    -0.0000     5.4950 n          1 2CV      -0.137800
     10 O34          8.2330    -0.0010     3.2760 o          1 2CV      -0.641100
     11 C35          7.5690    -0.0010     6.7630 c3         1 2CV       0.022000
     12 C36          9.7660    -0.0010     5.4940 c3         1 2CV       0.029000
     13 C37         10.2770     1.4410     5.4930 c3         1 2CV       0.148100
     14 C40         11.8020     1.4430     5.3680 c3         1 2CV       0.171100
     15 C41         12.3120     2.8850     5.3680 c3         1 2CV       0.169100
     16 C42         13.8370     2.8860     5.2410 c3         1 2CV       0.159100
     17 C43         14.3470     4.3280     5.2410 c3         1 2CV       0.182400
     18 O44         15.7760     4.3280     5.2410 oh         1 2CV      -0.597800
     19 O47          9.8990     2.0800     6.7150 oh         1 2CV      -0.573800
     20 O49         12.1790     0.8030     4.1470 oh         1 2CV      -0.553800
     21 O51         11.9350     3.5240     6.5880 oh         1 2CV      -0.565800
     22 O53         14.2150     2.2470     4.0200 oh         1 2CV      -0.569800
     23 C60          7.3140    -1.4420     7.2050 c3         1 2CV       0.202400
     24 O63          8.5600    -2.0820     7.4880 oh         1 2CV      -0.589800
     25 C1          -0.5100    -0.0000    -1.4430 c3         1 2CV      -0.028400
     26 C0          -2.0400     0.0000    -1.4420 c3         1 2CV       0.005900
     27 H91C        -0.3610    -0.8840     0.5110 hc         1 2CV       0.013700
     28 H92C        -0.3610     0.8840     0.5110 hc         1 2CV       0.013700
     29 H121         1.8910    -0.8840    -0.5110 hc         1 2CV       0.015700
     30 H122         1.8910     0.8840    -0.5110 hc         1 2CV       0.015700
     31 H11C        -0.1490     0.8840    -1.9530 hc         1 2CV       0.012700
     32 H12C        -0.1490    -0.8850    -1.9530 hc         1 2CV       0.012700
     33 H151         1.6800     0.8850     1.9530 hc         1 2CV       0.013200
     34 H152         1.6790    -0.8840     1.9540 hc         1 2CV       0.013200
     35 H181         3.9300    -0.8860     0.9320 hc         1 2CV       0.017700
     36 H182         3.9320     0.8830     0.9300 hc         1 2CV       0.017700
     37 H211         3.7180    -0.8840     3.3960 hc         1 2CV       0.010200
     38 H212         3.7190     0.8850     3.3950 hc         1 2CV       0.010200
     39 H241         5.9720     0.8830     2.3730 hc         1 2CV       0.031200
     40 H242         5.9710    -0.8860     2.3740 hc         1 2CV       0.031200
     41 H271         5.7600     0.8850     4.8370 hc         1 2CV       0.027700
     42 H272         5.7590    -0.8840     4.8390 hc         1 2CV       0.027700
     43 H351         6.6230     0.5100     6.6330 h1         1 2CV       0.040200
     44 H352         8.1540     0.5100     7.5180 h1         1 2CV       0.040200
     45 H361        10.1270    -0.5120     4.6100 h1         1 2CV       0.052700
     46 H362        10.1270    -0.5110     6.3790 h1         1 2CV       0.052700
     47 H601         6.6980    -1.4430     8.0970 h1         1 2CV      -0.007800
     48 H602         6.8040    -1.9780     6.4140 h1         1 2CV      -0.007800
     49 H37          9.8450     1.9770     4.6570 h1         1 2CV       0.022700
     50 H40         12.2340     0.9070     6.2040 h1         1 2CV       0.018700
     51 H47          9.3720     2.8380     6.5230 ho         1 2CV       0.384000
     52 H41         11.8800     3.4210     4.5310 h1         1 2CV       0.017700
     53 H49         12.6750     0.0250     4.3400 ho         1 2CV       0.391000
     54 H42         14.2690     2.3500     6.0780 h1         1 2CV       0.018700
     55 H51         11.6710     4.4120     6.4100 ho         1 2CV       0.384000
     56 H431        13.9860     4.8390     6.1250 h1         1 2CV      -0.004300
     57 H432        13.9860     4.8390     4.3560 h1         1 2CV      -0.004300
     58 H53         15.1430     2.0840     4.0250 ho         1 2CV       0.396000
     59 H44         16.0910     5.2160     5.2810 ho         1 2CV       0.394000
     60 H63          8.4140    -2.8170     8.0600 ho         1 2CV       0.392000
     61 H01C        -2.4010    -0.0060    -2.4630 hc         1 2CV      -0.000300
     62 H02C        -2.4010     0.8880    -0.9370 hc         1 2CV      -0.000300
     63 H03C        -2.4010    -0.8810    -0.9270 hc         1 2CV      -0.000300
@<TRIPOS>BOND
     1     1     2 1   
     2     1    25 1   
     3     1    27 1   
     4     1    28 1   
     5     2     3 1   
     6     2    29 1   
     7     2    30 1   
     8     3     4 1   
     9     3    33 1   
    10     3    34 1   
    11     4     5 1   
    12     4    35 1   
    13     4    36 1   
    14     5     6 1   
    15     5    37 1   
    16     5    38 1   
    17     6     7 1   
    18     6    39 1   
    19     6    40 1   
    20     7     8 1   
    21     7    41 1   
    22     7    42 1   
    23     8     9 1   
    24     8    10 2   
    25     9    11 1   
    26     9    12 1   
    27    11    23 1   
    28    11    43 1   
    29    11    44 1   
    30    12    13 1   
    31    12    45 1   
    32    12    46 1   
    33    13    14 1   
    34    13    19 1   
    35    13    49 1   
    36    14    15 1   
    37    14    20 1   
    38    14    50 1   
    39    15    16 1   
    40    15    21 1   
    41    15    52 1   
    42    16    17 1   
    43    16    22 1   
    44    16    54 1   
    45    17    18 1   
    46    17    56 1   
    47    17    57 1   
    48    18    59 1   
    49    19    51 1   
    50    20    53 1   
    51    21    55 1   
    52    22    58 1   
    53    23    24 1   
    54    23    47 1   
    55    23    48 1   
    56    24    60 1   
    57    25    26 1   
    58    25    31 1   
    59    25    32 1   
    60    26    61 1   
    61    26    62 1   
    62    26    63 1   
@<TRIPOS>SUBSTRUCTURE
     1 2CV         1 TEMP              0 ****  ****    0 ROOT
