@<TRIPOS>MOLECULE
molecule
   63    62     1     0     0
SMALL
bcc


@<TRIPOS>ATOM
      1 C9           0.0000     0.0000     0.0000 c3         1 2CV      -0.082400
      2 C12          1.5300     0.0000     0.0000 c3         1 2CV      -0.082400
      3 C15          2.0400     0.0000     1.4430 c3         1 2CV      -0.082400
      4 C18          3.5700    -0.0010     1.4420 c3         1 2CV      -0.080400
      5 C21          4.0800    -0.0000     2.8850 c3         1 2CV      -0.085400
      6 C24          5.6110    -0.0010     2.8840 c3         1 2CV      -0.067400
      7 C27          6.1200    -0.0000     4.3270 c3         1 2CV      -0.158400
      8 C30          7.6280    -0.0010     4.3270 c          1 2CV       0.652100
      9 N33          8.3020    -0.0000     5.4950 n          1 2CV      -0.481800
     10 O34          8.2330    -0.0010     3.2760 o          1 2CV      -0.602100
     11 C35          7.5690    -0.0010     6.7630 c3         1 2CV       0.098000
     12 C36          9.7660    -0.0010     5.4940 c3         1 2CV       0.102000
     13 C37         10.2770     1.4410     5.4930 c3         1 2CV       0.112100
     14 C40         11.8020     1.4430     5.3680 c3         1 2CV       0.142100
     15 C41         12.3120     2.8850     5.3680 c3         1 2CV       0.141100
     16 C42         13.8370     2.8860     5.2410 c3         1 2CV       0.132100
     17 C43         14.3470     4.3280     5.2410 c3         1 2CV       0.103400
     18 O44         15.7760     4.3280     5.2410 oh         1 2CV      -0.615800
     19 O47          9.8990     2.0800     6.7150 oh         1 2CV      -0.592800
     20 O49         12.1790     0.8030     4.1470 oh         1 2CV      -0.573800
     21 O51         11.9350     3.5240     6.5880 oh         1 2CV      -0.584800
     22 O53         14.2150     2.2470     4.0200 oh         1 2CV      -0.587800
     23 C60          7.3140    -1.4420     7.2050 c3         1 2CV       0.117400
     24 O63          8.5600    -2.0820     7.4880 oh         1 2CV      -0.605800
     25 C1          -0.5100    -0.0000    -1.4430 c3         1 2CV      -0.084400
     26 C0          -2.0400     0.0000    -1.4420 c3         1 2CV      -0.092100
     27 H91C        -0.3610    -0.8840     0.5110 hc         1 2CV       0.040700
     28 H92C        -0.3610     0.8840     0.5110 hc         1 2CV       0.040700
     29 H121         1.8910    -0.8840    -0.5110 hc         1 2CV       0.041700
     30 H122         1.8910     0.8840    -0.5110 hc         1 2CV       0.041700
     31 H11C        -0.1490     0.8840    -1.9530 hc         1 2CV       0.040700
     32 H12C        -0.1490    -0.8850    -1.9530 hc         1 2CV       0.040700
     33 H151         1.6800     0.8850     1.9530 hc         1 2CV       0.039700
     34 H152         1.6790    -0.8840     1.9540 hc         1 2CV       0.039700
     35 H181         3.9300    -0.8860     0.9320 hc         1 2CV       0.044700
     36 H182         3.9320     0.8830     0.9300 hc         1 2CV       0.044700
     37 H211         3.7180    -0.8840     3.3960 hc         1 2CV       0.037200
     38 H212         3.7190     0.8850     3.3950 hc         1 2CV       0.037200
     39 H241         5.9720     0.8830     2.3730 hc         1 2CV       0.059700
     40 H242         5.9710    -0.8860     2.3740 hc         1 2CV       0.059700
     41 H271         5.7600     0.8850     4.8370 hc         1 2CV       0.055700
     42 H272         5.7590    -0.8840     4.8390 hc         1 2CV       0.055700
     43 H351         6.6230     0.5100     6.6330 h1         1 2CV       0.066700
     44 H352         8.1540     0.5100     7.5180 h1         1 2CV       0.066700
     45 H361        10.1270    -0.5120     4.6100 h1         1 2CV       0.080200
     46 H362        10.1270    -0.5110     6.3790 h1         1 2CV       0.080200
     47 H601         6.6980    -1.4430     8.0970 h1         1 2CV       0.026200
     48 H602         6.8040    -1.9780     6.4140 h1         1 2CV       0.026200
     49 H37          9.8450     1.9770     4.6570 h1         1 2CV       0.055700
     50 H40         12.2340     0.9070     6.2040 h1         1 2CV       0.053700
     51 H47          9.3720     2.8380     6.5230 ho         1 2CV       0.397000
     52 H41         11.8800     3.4210     4.5310 h1         1 2CV       0.053700
     53 H49         12.6750     0.0250     4.3400 ho         1 2CV       0.406000
     54 H42         14.2690     2.3500     6.0780 h1         1 2CV       0.051700
     55 H51         11.6710     4.4120     6.4100 ho         1 2CV       0.398000
     56 H431        13.9860     4.8390     6.1250 h1         1 2CV       0.030200
     57 H432        13.9860     4.8390     4.3560 h1         1 2CV       0.030200
     58 H53         15.1430     2.0840     4.0250 ho         1 2CV       0.412000
     59 H44         16.0910     5.2160     5.2810 ho         1 2CV       0.407000
     60 H63          8.4140    -2.8170     8.0600 ho         1 2CV       0.402000
     61 H01C        -2.4010    -0.0060    -2.4630 hc         1 2CV       0.032367
     62 H02C        -2.4010     0.8880    -0.9370 hc         1 2CV       0.032367
     63 H03C        -2.4010    -0.8810    -0.9270 hc         1 2CV       0.032367
@<TRIPOS>BOND
     1     1     2 1
     2     1    25 1
     3     2     3 1
     4     3     4 1
     5     4     5 1
     6     5     6 1
     7     6     7 1
     8     7     8 1
     9     8     9 1
    10     8    10 2
    11     9    11 1
    12     9    12 1
    13    11    23 1
    14    12    13 1
    15    13    14 1
    16    13    19 1
    17    14    15 1
    18    14    20 1
    19    15    16 1
    20    15    21 1
    21    16    17 1
    22    16    22 1
    23    17    18 1
    24    23    24 1
    25    25    26 1
    26     1    27 1
    27     1    28 1
    28     2    29 1
    29     2    30 1
    30    25    31 1
    31    25    32 1
    32     3    33 1
    33     3    34 1
    34     4    35 1
    35     4    36 1
    36     5    37 1
    37     5    38 1
    38     6    39 1
    39     6    40 1
    40     7    41 1
    41     7    42 1
    42    11    43 1
    43    11    44 1
    44    12    45 1
    45    12    46 1
    46    23    47 1
    47    23    48 1
    48    13    49 1
    49    14    50 1
    50    19    51 1
    51    15    52 1
    52    20    53 1
    53    16    54 1
    54    21    55 1
    55    17    56 1
    56    17    57 1
    57    22    58 1
    58    18    59 1
    59    24    60 1
    60    26    61 1
    61    26    62 1
    62    26    63 1
@<TRIPOS>SUBSTRUCTURE
     1 2CV         1 TEMP              0 ****  ****    0 ROOT
