@<TRIPOS>MOLECULE
2CW
   48    49     1     0     0
SMALL
bcc


@<TRIPOS>ATOM
      1 O01          0.0000     0.0000     0.0000 o          1 2CW      -0.451100
      2 C02          1.2080     0.0000     0.0000 c          1 2CW       0.585500
      3 N03          1.8820     0.0050    -1.1660 ne         1 2CW       0.004900
      4 O04          1.2730     0.0090    -2.2220 o          1 2CW      -0.138300
      5 C05          1.9610     0.0000     1.3050 c3         1 2CW      -0.000600
      6 N06          3.1850    -0.7940     1.1640 ns         1 2CW      -0.195900
      7 C07          4.0210    -0.9340     2.2120 c          1 2CW       0.625700
      8 C08          5.2540    -1.7320     2.0680 ca         1 2CW      -0.196600
      9 C09          6.1220    -1.8790     3.1550 ca         1 2CW      -0.098000
     10 C10          7.2620    -2.6180     3.0240 ca         1 2CW      -0.104500
     11 C11          7.5630    -3.2290     1.8010 ca         1 2CW       0.138000
     12 C12          8.7590    -4.0050     1.6620 cg         1 2CW      -0.117000
     13 C13          9.7280    -4.6580     1.5440 ch         1 2CW       0.009000
     14 C14         10.7480    -5.3970     1.3890 ch         1 2CW      -0.062000
     15 C15         12.0220    -5.8100     1.3920 cg         1 2CW      -0.024000
     16 C16         13.2320    -6.4640     1.2930 ca         1 2CW      -0.070000
     17 C17         13.6110    -7.6930     0.2090 ca         1 2CW      -0.050000
     18 C18         14.8930    -8.1570     0.3410 ca         1 2CW      -0.088000
     19 C19         15.6440    -7.7610     1.1050 ca         1 2CW       0.059600
     20 C20         15.4440    -6.7450     2.0560 ca         1 2CW      -0.088000
     21 C21         14.5060    -6.3190     2.0480 ca         1 2CW      -0.050000
     22 N22         16.7040    -8.8200     1.0310 nv         1 2CW      -0.535200
     23 C23          6.6930    -3.0820     0.7120 ca         1 2CW      -0.104500
     24 C24          5.5510    -2.3480     0.8480 ca         1 2CW      -0.098000
     25 O25          3.7610    -0.4040     3.2740 o          1 2CW      -0.647100
     26 C26          2.3260     1.4370     1.6840 c3         1 2CW       0.176100
     27 O27          1.1320     2.2100     1.8220 oh         1 2CW      -0.584800
     28 C28          3.2040     2.0450     0.5880 c3         1 2CW      -0.061100
     29 C29          1.0830    -0.6080     2.4010 c3         1 2CW      -0.058100
     30 H3           3.4060    -0.8510     0.1900 hn         1 2CW       0.194500
     31 H4           5.5860    -1.2550     3.8600 ha         1 2CW       0.134000
     32 H5           7.5950    -2.2920     4.0030 ha         1 2CW       0.131000
     33 H6          12.8140    -7.5090    -0.5010 ha         1 2CW       0.099000
     34 H7          15.0870    -8.6950    -0.5790 ha         1 2CW       0.111000
     35 H8          16.2640    -6.7770     2.7640 ha         1 2CW       0.111000
     36 H9          14.4150    -5.4630     2.7060 ha         1 2CW       0.099000
     37 H10         17.1240    -9.4510     0.3770 hn         1 2CW       0.250800
     38 H11         17.4310    -8.4990     1.6400 hn         1 2CW       0.250800
     39 H12          6.7610    -3.6120    -0.2300 ha         1 2CW       0.131000
     40 H13          4.8600    -2.5010     0.0270 ha         1 2CW       0.134000
     41 H14          2.8670     1.4370     2.6230 h1         1 2CW       0.060700
     42 H15          1.3260     3.1240     1.9550 ho         1 2CW       0.401000
     43 H16          2.6100     2.2100    -0.3030 hc         1 2CW       0.011700
     44 H17          3.5610     3.0310     0.8620 hc         1 2CW       0.011700
     45 H18          4.0390     1.4780     0.1960 hc         1 2CW       0.011700
     46 H19          0.5720     0.0750     3.0690 hc         1 2CW       0.027033
     47 H20          0.3090    -1.3640     2.3520 hc         1 2CW       0.027033
     48 H21          1.5060    -1.0410     3.3000 hc         1 2CW       0.027033
@<TRIPOS>BOND
     1     1     2 2   
     2     2     3 1   
     3     2     5 1   
     4     3     4 2   
     5     5     6 1   
     6     5    26 1   
     7     5    29 1   
     8     6     7 1   
     9     6    30 1   
    10     7     8 1   
    11     7    25 2   
    12     8     9 ar  
    13     8    24 ar  
    14     9    10 ar  
    15     9    31 1   
    16    10    11 ar  
    17    10    32 1   
    18    11    12 1   
    19    11    23 ar  
    20    12    13 3   
    21    13    14 1   
    22    14    15 3   
    23    15    16 1   
    24    16    17 ar  
    25    16    21 ar  
    26    17    18 ar  
    27    17    33 1   
    28    18    19 ar  
    29    18    34 1   
    30    19    20 ar  
    31    19    22 1   
    32    20    21 ar  
    33    20    35 1   
    34    21    36 1   
    35    22    37 1   
    36    22    38 1   
    37    23    24 ar  
    38    23    39 1   
    39    24    40 1   
    40    26    27 1   
    41    26    28 1   
    42    26    41 1   
    43    27    42 1   
    44    28    43 1   
    45    28    44 1   
    46    28    45 1   
    47    29    46 1   
    48    29    47 1   
    49    29    48 1   
@<TRIPOS>SUBSTRUCTURE
     1 2CW         1 TEMP              0 ****  ****    0 ROOT
