@<TRIPOS>MOLECULE
molecule
   48    49     1     0     0
SMALL
bcc


@<TRIPOS>ATOM
      1 O01          0.0000     0.0000     0.0000 o          1 2CW      -0.429100
      2 C02          1.2080     0.0000     0.0000 c          1 2CW       0.583500
      3 N03          1.8820     0.0050    -1.1660 ne         1 2CW      -0.116100
      4 O04          1.2730     0.0090    -2.2220 o          1 2CW      -0.060300
      5 C05          1.9610     0.0000     1.3050 c3         1 2CW       0.114400
      6 N06          3.1850    -0.7940     1.1640 ns         1 2CW      -0.561900
      7 C07          4.0210    -0.9340     2.2120 c          1 2CW       0.691700
      8 C08          5.2540    -1.7320     2.0680 ca         1 2CW      -0.175600
      9 C09          6.1220    -1.8790     3.1550 ca         1 2CW      -0.117500
     10 C10          7.2620    -2.6180     3.0240 ca         1 2CW      -0.121000
     11 C11          7.5630    -3.2290     1.8010 ca         1 2CW       0.101000
     12 C12          8.7590    -4.0050     1.6620 cg         1 2CW      -0.102000
     13 C13          9.7280    -4.6580     1.5440 ch         1 2CW       0.002000
     14 C14         10.7480    -5.3970     1.3890 ch         1 2CW      -0.082000
     15 C15         12.0220    -5.8100     1.3920 cg         1 2CW      -0.022000
     16 C16         13.2320    -6.4640     1.2930 ca         1 2CW      -0.108000
     17 C17         13.6110    -7.6930     0.2090 ca         1 2CW      -0.067000
     18 C18         14.8930    -8.1570     0.3410 ca         1 2CW      -0.115000
     19 C19         15.6440    -7.7610     1.1050 ca         1 2CW       0.191600
     20 C20         15.4440    -6.7450     2.0560 ca         1 2CW      -0.115000
     21 C21         14.5060    -6.3190     2.0480 ca         1 2CW      -0.067000
     22 N22         16.7040    -8.8200     1.0310 nv         1 2CW      -0.930200
     23 C23          6.6930    -3.0820     0.7120 ca         1 2CW      -0.121000
     24 C24          5.5510    -2.3480     0.8480 ca         1 2CW      -0.117500
     25 O25          3.7610    -0.4040     3.2740 o          1 2CW      -0.611100
     26 C26          2.3260     1.4370     1.6840 c3         1 2CW       0.143100
     27 O27          1.1320     2.2100     1.8220 oh         1 2CW      -0.605800
     28 C28          3.2040     2.0450     0.5880 c3         1 2CW      -0.146100
     29 C29          1.0830    -0.6080     2.4010 c3         1 2CW      -0.139100
     30 H3           3.4060    -0.8510     0.1900 hn         1 2CW       0.329500
     31 H4           5.5860    -1.2550     3.8600 ha         1 2CW       0.159500
     32 H5           7.5950    -2.2920     4.0030 ha         1 2CW       0.160500
     33 H6          12.8140    -7.5090    -0.5010 ha         1 2CW       0.136500
     34 H7          15.0870    -8.6950    -0.5790 ha         1 2CW       0.136000
     35 H8          16.2640    -6.7770     2.7640 ha         1 2CW       0.136000
     36 H9          14.4150    -5.4630     2.7060 ha         1 2CW       0.136500
     37 H10         17.1240    -9.4510     0.3770 hn         1 2CW       0.390800
     38 H11         17.4310    -8.4990     1.6400 hn         1 2CW       0.390800
     39 H12          6.7610    -3.6120    -0.2300 ha         1 2CW       0.160500
     40 H13          4.8600    -2.5010     0.0270 ha         1 2CW       0.159500
     41 H14          2.8670     1.4370     2.6230 h1         1 2CW       0.088700
     42 H15          1.3260     3.1240     1.9550 ho         1 2CW       0.415000
     43 H16          2.6100     2.2100    -0.3030 hc         1 2CW       0.043367
     44 H17          3.5610     3.0310     0.8620 hc         1 2CW       0.043367
     45 H18          4.0390     1.4780     0.1960 hc         1 2CW       0.043367
     46 H19          0.5720     0.0750     3.0690 hc         1 2CW       0.058367
     47 H20          0.3090    -1.3640     2.3520 hc         1 2CW       0.058367
     48 H21          1.5060    -1.0410     3.3000 hc         1 2CW       0.058367
@<TRIPOS>BOND
     1    27    26 1
     2    26    28 1
     3    26     5 1
     4     3     4 2
     5     3     2 1
     6    29     5 1
     7     5     2 1
     8     5     6 1
     9     2     1 2
    10     6     7 1
    11    25     7 2
    12     7     8 1
    13    24     8 ar
    14    24    23 ar
    15     8     9 ar
    16    23    11 ar
    17     9    10 ar
    18    11    10 ar
    19    11    12 1
    20    12    13 3
    21    13    14 1
    22    14    15 3
    23    15    16 1
    24    16    17 ar
    25    16    21 ar
    26    17    18 ar
    27    21    20 ar
    28    18    19 ar
    29    20    19 ar
    30    19    22 1
    31     6    30 1
    32     9    31 1
    33    10    32 1
    34    17    33 1
    35    18    34 1
    36    20    35 1
    37    21    36 1
    38    22    37 1
    39    22    38 1
    40    23    39 1
    41    24    40 1
    42    26    41 1
    43    27    42 1
    44    28    43 1
    45    28    44 1
    46    28    45 1
    47    29    46 1
    48    29    47 1
    49    29    48 1
@<TRIPOS>SUBSTRUCTURE
     1 2CW         1 TEMP              0 ****  ****    0 ROOT
