@<TRIPOS>MOLECULE
2CX
   51    51     1     0     0
SMALL
bcc


@<TRIPOS>ATOM
      1 C10         0.2380   -0.5300   -0.3500 c2        1 2CX     -0.073000
      2 C13         0.4710    0.5050    2.1300 c1        1 2CX     -0.179000
      3 C15         3.0620    0.2550    1.8350 c2        1 2CX     -0.045000
      4 C17         6.9500    1.6550    1.3110 c1        1 2CX     -0.104000
      5 C20         3.6410    0.9950    2.9740 c3        1 2CX     -0.109000
      6 C21         1.5980   -2.8430   -6.6660 c3        1 2CX     -0.080000
      7 C22         1.3950   -4.1160   -7.4770 c2        1 2CX      0.217000
      8 C24         1.8200   -3.0030   -9.6240 c1        1 2CX     -0.206000
      9 O01         2.3930   -3.1370   -3.8220 o         1 2CX     -0.983500
     10 S02         0.9890   -3.1040   -4.0750 s6        1 2CX      2.815000
     11 C04        -0.6140   -2.1070   -5.9500 c3        1 2CX     -0.084000
     12 C05         4.3350   -1.5140   -2.0430 c3        1 2CX     -0.031000
     13 O06         5.4270   -1.4260   -1.1640 oh        1 2CX     -0.313000
     14 N08         2.7320   -0.7660   -0.2370 n3        1 2CX      0.039000
     15 C09         1.4110   -0.6140    0.3280 c2        1 2CX     -0.142000
     16 C11        -1.0420    0.0590    0.2470 c3        1 2CX     -0.007000
     17 C12        -0.5880    0.5480    1.5290 c1        1 2CX     -0.116000
     18 C14         1.6510   -0.2660    1.8640 c3        1 2CX      0.101000
     19 C16         3.6590   -0.1180    0.6670 c2        1 2CX     -0.139000
     20 C18         5.9550    1.5320    2.0040 c1        1 2CX     -0.183000
     21 C19         4.9720    1.5070    2.9040 c1        1 2CX     -0.019000
     22 C23         2.0930   -4.1480   -8.8130 c3        1 2CX     -0.095000
     23 C25         1.6060   -2.0720  -10.3450 c1        1 2CX     -0.157000
     24 O26         0.7540   -5.0800   -7.0520 o         1 2CX     -0.289000
     25 C27         0.3420   -4.6440   -3.9180 c3        1 2CX     -0.980000
     26 O28         0.3660   -2.2420   -3.1170 o         1 2CX     -0.983500
     27 H1          0.1330   -0.8400   -1.4080 ha        1 2CX      0.203000
     28 H2          1.6360   -1.2150    2.4780 hc        1 2CX      0.157000
     29 H3          7.8390    1.7850    0.7430 ha        1 2CX      0.241000
     30 H4          3.5910    0.3390    3.9010 hc        1 2CX      0.184000
     31 H5          1.5370   -1.9660   -7.3770 h1        1 2CX      0.139000
     32 H6          2.6510   -2.8760   -6.2510 h1        1 2CX      0.139000
     33 H7          1.7810   -5.0830   -9.3640 hc        1 2CX      0.140000
     34 H8         -0.4930   -1.1540   -6.5320 h1        1 2CX      0.101000
     35 H9         -1.1760   -2.8460   -6.5850 h1        1 2CX      0.101000
     36 H10        -1.2090   -1.8860   -5.0220 h1        1 2CX      0.101000
     37 H11         5.6780   -2.3230   -0.9030 ho        1 2CX      0.229000
     38 H12         2.1360   -1.7540   -1.9660 h4        1 2CX      0.222000
     39 H13         4.3060   -2.4840   -2.6200 h1        1 2CX      0.163500
     40 H14        -1.4170    0.8700   -0.4340 hc        1 2CX      0.148500
     41 H15        -1.8390   -0.7280    0.3370 hc        1 2CX      0.148500
     42 H16         4.7000    0.0190    0.3320 h4        1 2CX      0.233000
     43 H17         2.9670    1.8830    3.2030 hc        1 2CX      0.184000
     44 H18         3.2020   -4.2280   -8.6200 hc        1 2CX      0.140000
     45 H19         1.4180   -1.2500  -10.9910 ha        1 2CX      0.236000
     46 H20         0.9760   -5.2900   -3.2550 h1        1 2CX      0.185667
     47 H21         0.2430   -5.2280   -4.8770 h1        1 2CX      0.185667
     48 H22        -0.6830   -4.6440   -3.4660 h1        1 2CX      0.185667
     49 C07         3.0000   -1.3480   -1.3740 c2        1 2CX      0.032000
     50 H031        4.4530   -0.6570   -2.7730 h1        1 2CX      0.163500
     51 N03         0.6740   -2.6300   -5.5840 n3        1 2CX     -0.818000
@<TRIPOS>BOND
     1    1   15 1   
     2    1   16 1   
     3    1   27 1   
     4    2   17 1   
     5    2   18 1   
     6    3    5 1   
     7    3   18 1   
     8    3   19 1   
     9    4   20 1   
    10    4   29 1   
    11    5   21 1   
    12    5   30 1   
    13    5   43 1   
    14    6    7 1   
    15    6   31 1   
    16    6   32 1   
    17    6   51 1   
    18    7   22 1   
    19    7   24 1   
    20    8   22 1   
    21    8   23 1   
    22    9   10 1   
    23   10   25 1   
    24   10   26 1   
    25   10   51 1   
    26   11   34 1   
    27   11   35 1   
    28   11   36 1   
    29   11   51 1   
    30   12   13 1   
    31   12   39 1   
    32   12   49 1   
    33   12   50 1   
    34   13   37 1   
    35   14   15 1   
    36   14   19 1   
    37   14   49 1   
    38   15   18 1   
    39   16   17 1   
    40   16   40 1   
    41   16   41 1   
    42   18   28 1   
    43   19   42 1   
    44   20   21 1   
    45   22   33 1   
    46   22   44 1   
    47   23   45 1   
    48   25   46 1   
    49   25   47 1   
    50   25   48 1   
    51   38   49 1   
@<TRIPOS>SUBSTRUCTURE
     1 2CX         1 TEMP              0 ****  ****    0 ROOT
