@<TRIPOS>MOLECULE
molecule
   41    43     1     0     0
SMALL
bcc


@<TRIPOS>ATOM
      1 N1           0.0000     0.0000     0.0000 nb         1 2CY      -0.752000
      2 C2           1.3190     0.0000     0.0000 ca         1 2CY       0.954900
      3 N3           2.0380     0.0000     1.1190 nb         1 2CY      -0.790000
      4 C4           1.4600     0.0000     2.3120 ca         1 2CY       0.771200
      5 C5           0.0460    -0.0000     2.3720 ca         1 2CY      -0.325600
      6 C6          -0.6800    -0.0000     1.1570 ca         1 2CY       0.490600
      7 C7          -0.6460    -0.0010     3.5950 ca         1 2CY       0.192100
      8 C8          -2.0270    -0.0010     3.5890 ca         1 2CY      -0.258000
      9 C9          -2.7300    -0.0010     2.3900 ca         1 2CY      -0.060000
     10 C10         -2.0800    -0.0000     1.1920 ca         1 2CY      -0.222300
     11 N11          1.9820    -0.0010    -1.2140 nv         1 2CY      -1.062500
     12 N12          2.2170    -0.0010     3.4640 nv         1 2CY      -1.070500
     13 O13          0.0350    -0.0010     4.7680 os         1 2CY      -0.308900
     14 C14         -0.7400    -0.0020     5.9690 c3         1 2CY       0.135400
     15 C15          0.1950    -0.0020     7.1800 c3         1 2CY      -0.084400
     16 C16         -0.6360    -0.0030     8.4650 c3         1 2CY       0.142400
     17 O17          0.2370    -0.0030     9.5960 os         1 2CY      -0.323900
     18 C18         -0.3450    -0.0030    10.8240 ca         1 2CY       0.168100
     19 C19         -1.7270    -0.0090    10.9390 ca         1 2CY      -0.238000
     20 C20         -2.3180    -0.0100    12.1870 ca         1 2CY      -0.064000
     21 C21         -1.5330    -0.0050    13.3250 ca         1 2CY      -0.205000
     22 C22         -0.1520     0.0010    13.2150 ca         1 2CY       0.170900
     23 C23          0.4430    -0.0040    11.9660 ca         1 2CY      -0.201000
     24 F24          0.6140     0.0070    14.3280 f          1 2CY      -0.135900
     25 H8          -2.5670    -0.0020     4.5280 ha         1 2CY       0.134000
     26 H9          -3.8130    -0.0010     2.4090 ha         1 2CY       0.134000
     27 H10         -2.6460    -0.0000     0.2680 ha         1 2CY       0.153000
     28 HN11         2.2220     0.8660    -1.6530 hn         1 2CY       0.444800
     29 HN1A         2.2200    -0.8680    -1.6530 hn         1 2CY       0.444800
     30 HN12         2.5180     0.8650     3.8650 hn         1 2CY       0.444800
     31 HN1B         2.5150    -0.8680     3.8660 hn         1 2CY       0.444800
     32 H14         -1.3650     0.8830     5.9950 h1         1 2CY       0.039700
     33 H14A        -1.3650    -0.8860     5.9950 h1         1 2CY       0.039700
     34 H15          0.8200     0.8820     7.1540 hc         1 2CY       0.070700
     35 H15A         0.8190    -0.8870     7.1530 hc         1 2CY       0.070700
     36 H16         -1.2610     0.8820     8.4920 h1         1 2CY       0.038700
     37 H16A        -1.2610    -0.8870     8.4910 h1         1 2CY       0.038700
     38 H19         -2.3440    -0.0130    10.0480 ha         1 2CY       0.136000
     39 H20         -3.3970    -0.0150    12.2750 ha         1 2CY       0.138000
     40 H21         -1.9980    -0.0040    14.3030 ha         1 2CY       0.147000
     41 H23          1.5230     0.0000    11.8800 ha         1 2CY       0.159000
@<TRIPOS>BOND
     1     2     1 ar  
     2     1     6 ar  
     3    11     2 1   
     4     2     3 ar  
     5     3     4 ar  
     6     4     5 ar  
     7     4    12 1   
     8     6     5 ar  
     9     5     7 ar  
    10     6    10 ar  
    11     7     8 ar  
    12     7    13 1   
    13     9     8 ar  
    14     8    25 1   
    15    10     9 ar  
    16     9    26 1   
    17    10    27 1   
    18    11    28 1   
    19    11    29 1   
    20    12    30 1   
    21    12    31 1   
    22    13    14 1   
    23    14    15 1   
    24    14    32 1   
    25    14    33 1   
    26    15    16 1   
    27    15    34 1   
    28    15    35 1   
    29    17    16 1   
    30    16    36 1   
    31    16    37 1   
    32    17    18 1   
    33    19    18 ar  
    34    18    23 ar  
    35    20    19 ar  
    36    19    38 1   
    37    20    21 ar  
    38    20    39 1   
    39    21    22 ar  
    40    21    40 1   
    41    22    23 ar  
    42    22    24 1   
    43    23    41 1   
@<TRIPOS>SUBSTRUCTURE
     1 2CY         1 TEMP              0 ****  ****    0 ROOT
