@<TRIPOS>MOLECULE
2CZ
   30    30     1     0     0
SMALL
bcc


@<TRIPOS>ATOM
      1 N1           0.0000     0.0000     0.0000 n7         1 2CZ      -0.582200
      2 C2           1.4800     0.0000     0.0000 c3         1 2CZ       0.119800
      3 N2           3.3160     0.7600     1.3940 ns         1 2CZ      -0.171900
      4 C3           2.0640     0.0000     1.3870 c3         1 2CZ      -0.024300
      5 C4           2.3410    -1.4600     1.8020 c3         1 2CZ       0.164100
      6 O4           3.2780    -1.4660     2.8800 oh         1 2CZ      -0.584800
      7 C5           1.1270    -2.1510     2.2260 c3         1 2CZ       0.152100
      8 O5           1.4680    -3.4780     2.6330 oh         1 2CZ      -0.581800
      9 C6           0.0760    -2.2290     1.0990 c3         1 2CZ       0.173100
     10 O6          -0.8760    -3.2500     1.3990 oh         1 2CZ      -0.573800
     11 C7          -0.6180    -0.8970     1.0010 c3         1 2CZ       0.110800
     12 C8           3.2910     2.0980     1.5450 c          1 2CZ       0.572100
     13 O8           2.2320     2.6750     1.6760 o          1 2CZ      -0.655100
     14 C9           4.5810     2.8800     1.5520 c3         1 2CZ      -0.066100
     15 H02         -0.3340     0.9330     0.1370 hn         1 2CZ       0.268800
     16 H14          1.8280    -0.8820    -0.5230 h1         1 2CZ       0.030700
     17 H03          1.8280     0.8830    -0.5230 h1         1 2CZ       0.030700
     18 H04          4.1880     0.2880     1.2550 hn         1 2CZ       0.174500
     19 H05          1.3580     0.4460     2.0770 h1         1 2CZ       0.071700
     20 H06          2.7660    -1.9890     0.9580 h1         1 2CZ       0.015700
     21 H07          3.9440    -2.1120     2.7140 ho         1 2CZ       0.399000
     22 H08          0.6990    -1.6200     3.0670 h1         1 2CZ       0.024700
     23 H09          1.2110    -3.6080     3.5310 ho         1 2CZ       0.402000
     24 H10          0.5690    -2.4500     0.1590 h1         1 2CZ       0.020700
     25 H11         -1.0400    -3.7650     0.6260 ho         1 2CZ       0.395000
     26 H15         -0.5820    -0.4150     1.9700 h1         1 2CZ       0.023200
     27 H12         -1.6530    -1.0640     0.7270 h1         1 2CZ       0.023200
     28 H16          5.1450     2.6540     0.6560 hc         1 2CZ       0.022700
     29 H13          4.3600     3.9400     1.5820 hc         1 2CZ       0.022700
     30 H01          5.1630     2.6080     2.4240 hc         1 2CZ       0.022700
@<TRIPOS>BOND
     1     1     2 1   
     2     1    11 1   
     3     1    15 1   
     4     2     4 1   
     5     2    16 1   
     6     2    17 1   
     7     3     4 1   
     8     3    12 1   
     9     3    18 1   
    10     4     5 1   
    11     4    19 1   
    12     5     6 1   
    13     5     7 1   
    14     5    20 1   
    15     6    21 1   
    16     7     8 1   
    17     7     9 1   
    18     7    22 1   
    19     8    23 1   
    20     9    10 1   
    21     9    11 1   
    22     9    24 1   
    23    10    25 1   
    24    11    26 1   
    25    11    27 1   
    26    12    13 2   
    27    12    14 1   
    28    14    28 1   
    29    14    29 1   
    30    14    30 1   
@<TRIPOS>SUBSTRUCTURE
     1 2CZ         1 TEMP              0 ****  ****    0 ROOT
