@<TRIPOS>MOLECULE
2D0
   16    17     1     0     0
SMALL
bcc


@<TRIPOS>ATOM
      1 C1           0.0000     0.0000     0.0000 ca         1 2D0       0.069400
      2 C2           1.3980     0.0000     0.0000 ca         1 2D0       0.007900
      3 C3          -0.6710    -0.0000     1.2410 ca         1 2D0       0.013400
      4 C4           2.1020     0.0000     1.2010 ca         1 2D0      -0.053000
      5 C5           0.0400     0.0000     2.4160 ca         1 2D0      -0.104000
      6 C6           1.4270     0.0000     2.4020 ca         1 2D0      -0.080000
      7 N7          -0.5240     0.0060    -1.2420 nc         1 2D0      -0.444100
      8 C8           0.2910     0.0050    -2.2400 cd         1 2D0       0.487100
      9 S9           1.9550     0.0010    -1.6710 ss         1 2D0      -0.275100
     10 N10         -0.0870     0.0100    -3.5680 nv         1 2D0      -0.522800
     11 Cl1         -2.4060     0.0010     1.2840 cl         1 2D0       0.001600
     12 H1           3.1860     0.0000     1.1910 ha         1 2D0       0.114000
     13 H2          -0.4870    -0.0000     3.3630 ha         1 2D0       0.118000
     14 H3           1.9790     0.0000     3.3340 ha         1 2D0       0.110000
     15 H4          -0.2190    -0.8550    -4.0540 hn         1 2D0       0.278800
     16 H5          -0.2140     0.8780    -4.0490 hn         1 2D0       0.278800
@<TRIPOS>BOND
     1     1     2 ar  
     2     1     3 ar  
     3     1     7 1   
     4     2     4 ar  
     5     2     9 1   
     6     3     5 ar  
     7     3    11 1   
     8     4     6 ar  
     9     4    12 1   
    10     5     6 ar  
    11     5    13 1   
    12     6    14 1   
    13     7     8 2   
    14     8     9 1   
    15     8    10 1   
    16    10    15 1   
    17    10    16 1   
@<TRIPOS>SUBSTRUCTURE
     1 2D0         1 TEMP              0 ****  ****    0 ROOT
