@<TRIPOS>MOLECULE
molecule
   16    17     1     0     0
SMALL
bcc


@<TRIPOS>ATOM
      1 C1           0.0000     0.0000     0.0000 ca         1 2D0       0.127400
      2 C2           1.3980     0.0000     0.0000 ca         1 2D0      -0.031100
      3 C3          -0.6710    -0.0000     1.2410 ca         1 2D0       0.077400
      4 C4           2.1020     0.0000     1.2010 ca         1 2D0      -0.089000
      5 C5           0.0400     0.0000     2.4160 ca         1 2D0      -0.124000
      6 C6           1.4270     0.0000     2.4020 ca         1 2D0      -0.113000
      7 N7          -0.5240     0.0060    -1.2420 nc         1 2D0      -0.581100
      8 C8           0.2910     0.0050    -2.2400 cd         1 2D0       0.662100
      9 S9           1.9550     0.0010    -1.6710 ss         1 2D0      -0.183100
     10 N10         -0.0870     0.0100    -3.5680 nv         1 2D0      -0.989800
     11 Cl1         -2.4060     0.0010     1.2840 cl         1 2D0      -0.084400
     12 H1           3.1860     0.0000     1.1910 ha         1 2D0       0.140000
     13 H2          -0.4870    -0.0000     3.3630 ha         1 2D0       0.149000
     14 H3           1.9790     0.0000     3.3340 ha         1 2D0       0.142000
     15 H4          -0.2190    -0.8550    -4.0540 hn         1 2D0       0.448800
     16 H5          -0.2140     0.8780    -4.0490 hn         1 2D0       0.448800
@<TRIPOS>BOND
     1    10     8 1
     2     9     8 1
     3     9     2 1
     4     8     7 2
     5     7     1 1
     6     2     4 ar
     7     2     1 ar
     8     4     6 ar
     9     1     3 ar
    10     3     5 ar
    11     3    11 1
    12     6     5 ar
    13     4    12 1
    14     5    13 1
    15     6    14 1
    16    10    15 1
    17    10    16 1
@<TRIPOS>SUBSTRUCTURE
     1 2D0         1 TEMP              0 ****  ****    0 ROOT
