@<TRIPOS>MOLECULE
molecule
   41    42     1     0     0
SMALL
bcc


@<TRIPOS>ATOM
      1 O2           0.0000     0.0000     0.0000 o          1 2D1      -0.638300
      2 S1           1.4210     0.0000     0.0000 sy         1 2D1       1.425200
      3 O1           2.1970     0.0000     1.1900 o          1 2D1      -0.638300
      4 N1           1.8870    -1.3340    -0.8630 n7         1 2D1      -0.917100
      5 C5           3.3110    -1.6060    -1.0770 c3         1 2D1       0.230800
      6 C4           3.4890    -3.0480    -1.5580 c3         1 2D1      -0.085400
      7 C2           4.9760    -3.3310    -1.7810 c3         1 2D1      -0.076700
      8 C3           5.7150    -3.2570    -0.4440 c3         1 2D1      -0.089100
      9 C1           5.1430    -4.7300    -2.3790 c3         1 2D1      -0.089100
     10 C6           1.9190     1.4170    -0.9200 ca         1 2D1      -0.313500
     11 C11          1.0590     1.9720    -1.8510 ca         1 2D1      -0.032000
     12 C10          1.4440     3.0820    -2.5750 ca         1 2D1      -0.132500
     13 C9           2.7010     3.6460    -2.3650 ca         1 2D1      -0.062500
     14 C8           3.5630     3.0830    -1.4260 ca         1 2D1      -0.132500
     15 C7           3.1660     1.9750    -0.7050 ca         1 2D1      -0.032000
     16 C12          3.1210     4.8390    -3.1410 cc         1 2D1       0.418800
     17 N2           2.3450     5.4220    -4.0430 nc         1 2D1      -0.681000
     18 C14          2.8230     6.4520    -4.6500 cd         1 2D1       0.456700
     19 C15          2.0910     7.2440    -5.7040 c3         1 2D1      -0.113400
     20 S2           4.4020     6.7960    -4.0930 ss         1 2D1      -0.200300
     21 C13          4.3230     5.4290    -2.9850 cd         1 2D1      -0.177400
     22 H1           1.1980    -1.9690    -1.2140 hn         1 2D1       0.455800
     23 H2           3.8490    -1.4670    -0.1460 h1         1 2D1       0.047700
     24 H3           3.7010    -0.9250    -1.8240 h1         1 2D1       0.047700
     25 H4           2.9510    -3.1870    -2.4880 hc         1 2D1       0.049700
     26 H5           3.1000    -3.7280    -0.8110 hc         1 2D1       0.049700
     27 H6           5.3860    -2.5960    -2.4620 hc         1 2D1       0.049700
     28 H7           5.1020    -3.6970     0.3330 hc         1 2D1       0.036533
     29 H8           5.9180    -2.2210    -0.2010 hc         1 2D1       0.036533
     30 H9           6.6500    -3.8000    -0.5180 hc         1 2D1       0.036533
     31 H10          4.5890    -4.7940    -3.3080 hc         1 2D1       0.036533
     32 H11          6.1920    -4.9180    -2.5700 hc         1 2D1       0.036533
     33 H12          4.7650    -5.4680    -1.6820 hc         1 2D1       0.036533
     34 H13          0.0820     1.5330    -2.0130 ha         1 2D1       0.151500
     35 H14          0.7700     3.5150    -3.3040 ha         1 2D1       0.147000
     36 H15          4.5410     3.5180    -1.2570 ha         1 2D1       0.147000
     37 H16          3.8360     1.5370     0.0250 ha         1 2D1       0.151500
     38 H17          1.1300     7.5580    -5.3160 hc         1 2D1       0.060033
     39 H18          2.6760     8.1160    -5.9710 hc         1 2D1       0.060033
     40 H19          1.9430     6.6260    -6.5810 hc         1 2D1       0.060033
     41 H20          5.1040     5.1160    -2.3020 h4         1 2D1       0.184000
@<TRIPOS>BOND
     1     9     7 1   
     2     1     2 2   
     3     7     8 1   
     4     7     6 1   
     5    15    14 ar  
     6    15    10 ar  
     7     2     3 2   
     8     2     4 1   
     9     2    10 1   
    10     6     5 1   
    11    14    13 ar  
    12     4     5 1   
    13    10    11 ar  
    14    17    18 2   
    15    17    16 1   
    16    19    18 1   
    17    13    16 1   
    18    13    12 ar  
    19    11    12 ar  
    20    18    20 1   
    21    16    21 2   
    22    21    20 1   
    23     4    22 1   
    24     5    23 1   
    25     5    24 1   
    26     6    25 1   
    27     6    26 1   
    28     7    27 1   
    29     8    28 1   
    30     8    29 1   
    31     8    30 1   
    32     9    31 1   
    33     9    32 1   
    34     9    33 1   
    35    11    34 1   
    36    12    35 1   
    37    14    36 1   
    38    15    37 1   
    39    19    38 1   
    40    19    39 1   
    41    19    40 1   
    42    21    41 1   
@<TRIPOS>SUBSTRUCTURE
     1 2D1         1 TEMP              0 ****  ****    0 ROOT
