@<TRIPOS>MOLECULE
2D2
   24    25     1     0     0
SMALL
bcc


@<TRIPOS>ATOM
      1 C1          0.1230   -0.0200   -0.0900 cc        1 2D2      0.207200
      2 C2         -0.7920    0.0000   -1.1980 ca        1 2D2     -0.069500
      3 C3          1.5050   -0.1130   -0.0010 cd        1 2D2     -0.172300
      4 O4         -0.4300    0.0710    1.2030 os        1 2D2     -0.397800
      5 C5         -2.1790    0.1050   -0.9970 ca        1 2D2     -0.132500
      6 C6         -0.3000   -0.0860   -2.5130 ca        1 2D2     -0.132500
      7 C7          1.8510   -0.0820    1.3990 cd        1 2D2     -0.245900
      8 C8          0.6550    0.0300    2.0920 cc        1 2D2      0.274000
      9 C9         -3.0480    0.1230   -2.0840 ca        1 2D2     -0.133000
     10 C10        -1.1770   -0.0680   -3.5940 ca        1 2D2     -0.133000
     11 C11         3.2460   -0.1570    1.9550 c         1 2D2      0.931200
     12 C12         0.3420    0.1090    3.5190 c3        1 2D2     -0.138400
     13 C13        -2.5520    0.0370   -3.3850 ca        1 2D2     -0.160000
     14 O14         3.3930   -0.1170    3.2110 o         1 2D2     -0.833300
     15 O15         4.2010   -0.2570    1.1340 o         1 2D2     -0.833300
     16 H1          2.2320   -0.1960   -0.8050 ha        1 2D2      0.166000
     17 H2         -2.5660    0.1730    0.0310 ha        1 2D2      0.141500
     18 H3          0.7850   -0.1690   -2.6790 ha        1 2D2      0.141500
     19 H4         -4.1310    0.2060   -1.9140 ha        1 2D2      0.117000
     20 H5         -0.7820   -0.1360   -4.6170 ha        1 2D2      0.117000
     21 H6          1.3140    0.0630    4.0840 hc        1 2D2      0.057033
     22 H7         -0.3140   -0.7430    3.8280 hc        1 2D2      0.057033
     23 H8         -0.1870    1.0650    3.7560 hc        1 2D2      0.057033
     24 H9         -3.2410    0.0510   -4.2400 ha        1 2D2      0.115000
@<TRIPOS>BOND
     1    1    2 1
     2    1    3 2
     3    1    4 1
     4    2    5 ar
     5    2    6 ar
     6    3    7 1
     7    3   16 1
     8    4    8 1
     9    5    9 ar
    10    5   17 1
    11    6   10 ar
    12    6   18 1
    13    7    8 2
    14    7   11 1
    15    8   12 1
    16    9   13 ar
    17    9   19 1
    18   10   13 ar
    19   10   20 1
    20   11   14 1
    21   11   15 1
    22   12   21 1
    23   12   22 1
    24   12   23 1
    25   13   24 1
@<TRIPOS>SUBSTRUCTURE
     1 2D2         1 TEMP              0 ****  ****    0 ROOT
