@<TRIPOS>MOLECULE
2D3
   24    25     1     0     0
SMALL
bcc


@<TRIPOS>ATOM
      1 CAA         0.1460    0.8170    0.1390 c3        1 2D3      0.128700
      2 OAI         1.5350    0.8720    0.4740 os        1 2D3     -0.414900
      3 CAK         2.0850   -0.2810    0.9650 c         1 2D3      0.682700
      4 OAC         1.3620   -1.2830    1.0290 o         1 2D3     -0.562000
      5 CAO         3.4820   -0.1750    1.3280 cc        1 2D3     -0.275900
      6 CAL         4.3500   -1.2700    1.5620 cd        1 2D3     -0.015600
      7 CAB         4.0770   -2.7150    1.5300 c3        1 2D3     -0.063800
      8 NAG         5.5970   -0.7060    1.8450 na        1 2D3     -0.006600
      9 NAH         5.5870    0.6250    1.8230 nd        1 2D3     -0.491800
     10 CAN         4.3090    1.0060    1.5100 cc        1 2D3      0.317300
     11 CAM         3.9240    2.3830    1.3990 cc        1 2D3      0.228700
     12 CAE         4.5590    3.5260    0.9430 cd        1 2D3     -0.327600
     13 CAD         3.5670    4.5770    1.1280 cd        1 2D3      0.296200
     14 NAF         2.4540    4.0450    1.6610 nc        1 2D3     -0.354300
     15 OAJ         2.6260    2.7530    1.8370 os        1 2D3     -0.088100
     16 HAA1       -0.0160    0.0830   -0.6850 h1        1 2D3      0.052367
     17 HAA2       -0.4530    0.5270    1.0360 h1        1 2D3      0.052367
     18 HAA3       -0.0820    1.8620   -0.1860 h1        1 2D3      0.052367
     19 HAB1        4.6810   -3.2160    0.7330 hc        1 2D3      0.075033
     20 HAB2        2.9870   -2.8780    1.3170 hc        1 2D3      0.075033
     21 HAB3        4.3220   -3.1870    2.5150 hc        1 2D3      0.075033
     22 HAG         6.4350   -1.1940    2.0650 hn        1 2D3      0.331700
     23 HAE         5.5590    3.6360    0.5390 ha        1 2D3      0.181000
     24 HAD         3.6720    5.6360    0.8880 h4        1 2D3      0.052100
@<TRIPOS>BOND
     1    1    2 1
     2    1   16 1
     3    1   17 1
     4    1   18 1
     5    2    3 1
     6    3    4 2
     7    3    5 1
     8    5    6 2
     9    5   10 1
    10    6    7 1
    11    6    8 1
    12    7   19 1
    13    7   20 1
    14    7   21 1
    15    8    9 1
    16    8   22 1
    17    9   10 2
    18   10   11 1
    19   11   12 2
    20   11   15 1
    21   12   13 1
    22   12   23 1
    23   13   14 2
    24   13   24 1
    25   14   15 1
@<TRIPOS>SUBSTRUCTURE
     1 2D3         1 TEMP              0 ****  ****    0 ROOT
