@<TRIPOS>MOLECULE
2D4
   42    45     1     0     0
SMALL
bcc


@<TRIPOS>ATOM
      1 C8           0.0000     0.0000     0.0000 cc         1 2D4       0.018000
      2 C11          1.3850     0.0000     0.0000 cc         1 2D4      -0.159000
      3 C10          1.9470     0.0000     1.2100 cd         1 2D4       0.042900
      4 S2           0.6930     0.0020     2.4430 ss         1 2D4      -0.198800
      5 C1          -0.5620     0.0010     1.2090 cd         1 2D4      -0.054600
      6 S1          -2.2960     0.0020     1.5230 sy         1 2D4       1.059200
      7 O2          -2.4630     0.4890     2.8480 o          1 2D4      -0.576300
      8 O1          -2.9090     0.6020     0.3920 o          1 2D4      -0.576300
      9 N           -2.7910    -1.5790     1.5410 nu         1 2D4      -0.402500
     10 C9          -2.7200    -2.3470     0.3740 ca         1 2D4      -0.007400
     11 C6          -1.7260    -3.3040     0.2360 ca         1 2D4      -0.059000
     12 C16         -3.6470    -2.1540    -0.6430 ca         1 2D4      -0.040000
     13 C15         -3.5820    -2.9100    -1.7990 ca         1 2D4      -0.204000
     14 C5          -2.5910    -3.8640    -1.9500 ca         1 2D4       0.169100
     15 O3          -2.5280    -4.6060    -3.0870 oh         1 2D4      -0.467100
     16 C2          -1.6560    -4.0690    -0.9280 cp         1 2D4      -0.050000
     17 C3          -0.5980    -5.0920    -1.0820 cp         1 2D4      -0.056000
     18 C4          -0.8210    -6.4210    -0.6530 ca         1 2D4       0.015000
     19 C17         -2.0390    -6.8040    -0.0730 ca         1 2D4      -0.099000
     20 C19         -2.2200    -8.0930     0.3300 ca         1 2D4      -0.089000
     21 C20         -1.2100    -9.0390     0.1750 ca         1 2D4      -0.110000
     22 C18         -0.0150    -8.7030    -0.3830 ca         1 2D4      -0.078000
     23 C12          0.2070    -7.3830    -0.8110 ca         1 2D4      -0.066000
     24 C14          1.4300    -7.0030    -1.3910 ca         1 2D4      -0.047000
     25 C13          1.6250    -5.7200    -1.7980 ca         1 2D4      -0.179000
     26 C7           0.6220    -4.7590    -1.6560 ca         1 2D4       0.156100
     27 O4           0.8440    -3.4870    -2.0780 oh         1 2D4      -0.479100
     28 H8          -0.5830    -0.0000    -0.9130 ha         1 2D4       0.133000
     29 H11          1.9680    -0.0010    -0.9130 ha         1 2D4       0.124000
     30 H10          3.0130    -0.0000     1.4030 h4         1 2D4       0.146000
     31 H           -3.1370    -1.9850     2.3870 hn         1 2D4       0.346800
     32 H6          -1.0050    -3.4580     1.0300 ha         1 2D4       0.117000
     33 H16         -4.4240    -1.4080    -0.5300 ha         1 2D4       0.125000
     34 H15         -4.3070    -2.7540    -2.5880 ha         1 2D4       0.113000
     35 H3          -3.2010    -4.3240    -3.6840 ho         1 2D4       0.401000
     36 H17         -2.8330    -6.0780     0.0530 ha         1 2D4       0.114000
     37 H19         -3.1630    -8.3850     0.7760 ha         1 2D4       0.100000
     38 H20         -1.3780   -10.0580     0.5030 ha         1 2D4       0.101000
     39 H18          0.7620    -9.4500    -0.4970 ha         1 2D4       0.104000
     40 H14          2.2210    -7.7340    -1.5100 ha         1 2D4       0.104000
     41 H13          2.5700    -5.4410    -2.2480 ha         1 2D4       0.107000
     42 H4           1.4250    -3.4990    -2.8190 ho         1 2D4       0.401000
@<TRIPOS>BOND
     1     1     2 1   
     2     1     5 2   
     3     1    28 1   
     4     2     3 2   
     5     2    29 1   
     6     3     4 1   
     7     3    30 1   
     8     4     5 1   
     9     5     6 1   
    10     6     7 2   
    11     6     8 2   
    12     6     9 1   
    13     9    10 1   
    14     9    31 1   
    15    10    11 ar  
    16    10    12 ar  
    17    11    16 ar  
    18    11    32 1   
    19    12    13 ar  
    20    12    33 1   
    21    13    14 ar  
    22    13    34 1   
    23    14    15 1   
    24    14    16 ar  
    25    15    35 1   
    26    16    17 1   
    27    17    18 ar  
    28    17    26 ar  
    29    18    19 ar  
    30    18    23 ar  
    31    19    20 ar  
    32    19    36 1   
    33    20    21 ar  
    34    20    37 1   
    35    21    22 ar  
    36    21    38 1   
    37    22    23 ar  
    38    22    39 1   
    39    23    24 ar  
    40    24    25 ar  
    41    24    40 1   
    42    25    26 ar  
    43    25    41 1   
    44    26    27 1   
    45    27    42 1   
@<TRIPOS>SUBSTRUCTURE
     1 2D4         1 TEMP              0 ****  ****    0 ROOT
