@<TRIPOS>MOLECULE
molecule
   42    45     1     0     0
SMALL
bcc


@<TRIPOS>ATOM
      1 C8           0.0000     0.0000     0.0000 cc         1 2D4      -0.011000
      2 C11          1.3850     0.0000     0.0000 cc         1 2D4      -0.181000
      3 C10          1.9470     0.0000     1.2100 cd         1 2D4      -0.042100
      4 S2           0.6930     0.0020     2.4430 ss         1 2D4      -0.052800
      5 C1          -0.5620     0.0010     1.2090 cd         1 2D4      -0.272600
      6 S1          -2.2960     0.0020     1.5230 sy         1 2D4       1.447200
      7 O2          -2.4630     0.4890     2.8480 o          1 2D4      -0.630800
      8 O1          -2.9090     0.6020     0.3920 o          1 2D4      -0.630800
      9 N           -2.7910    -1.5790     1.5410 nu         1 2D4      -0.774500
     10 C9          -2.7200    -2.3470     0.3740 ca         1 2D4       0.073600
     11 C6          -1.7260    -3.3040     0.2360 ca         1 2D4      -0.072000
     12 C16         -3.6470    -2.1540    -0.6430 ca         1 2D4      -0.067000
     13 C15         -3.5820    -2.9100    -1.7990 ca         1 2D4      -0.224000
     14 C5          -2.5910    -3.8640    -1.9500 ca         1 2D4       0.159100
     15 O3          -2.5280    -4.6060    -3.0870 oh         1 2D4      -0.485100
     16 C2          -1.6560    -4.0690    -0.9280 cp         1 2D4      -0.053000
     17 C3          -0.5980    -5.0920    -1.0820 cp         1 2D4      -0.054000
     18 C4          -0.8210    -6.4210    -0.6530 ca         1 2D4       0.011000
     19 C17         -2.0390    -6.8040    -0.0730 ca         1 2D4      -0.119000
     20 C19         -2.2200    -8.0930     0.3300 ca         1 2D4      -0.117000
     21 C20         -1.2100    -9.0390     0.1750 ca         1 2D4      -0.134000
     22 C18         -0.0150    -8.7030    -0.3830 ca         1 2D4      -0.107000
     23 C12          0.2070    -7.3830    -0.8110 ca         1 2D4      -0.062000
     24 C14          1.4300    -7.0030    -1.3910 ca         1 2D4      -0.078000
     25 C13          1.6250    -5.7200    -1.7980 ca         1 2D4      -0.197000
     26 C7           0.6220    -4.7590    -1.6560 ca         1 2D4       0.144100
     27 O4           0.8440    -3.4870    -2.0780 oh         1 2D4      -0.498100
     28 H8          -0.5830    -0.0000    -0.9130 ha         1 2D4       0.165000
     29 H11          1.9680    -0.0010    -0.9130 ha         1 2D4       0.152000
     30 H10          3.0130    -0.0000     1.4030 h4         1 2D4       0.172000
     31 H           -3.1370    -1.9850     2.3870 hn         1 2D4       0.462800
     32 H6          -1.0050    -3.4580     1.0300 ha         1 2D4       0.150000
     33 H16         -4.4240    -1.4080    -0.5300 ha         1 2D4       0.154000
     34 H15         -4.3070    -2.7540    -2.5880 ha         1 2D4       0.137000
     35 H3          -3.2010    -4.3240    -3.6840 ho         1 2D4       0.422000
     36 H17         -2.8330    -6.0780     0.0530 ha         1 2D4       0.140000
     37 H19         -3.1630    -8.3850     0.7760 ha         1 2D4       0.129000
     38 H20         -1.3780   -10.0580     0.5030 ha         1 2D4       0.128000
     39 H18          0.7620    -9.4500    -0.4970 ha         1 2D4       0.131000
     40 H14          2.2210    -7.7340    -1.5100 ha         1 2D4       0.134000
     41 H13          2.5700    -5.4410    -2.2480 ha         1 2D4       0.131000
     42 H4           1.4250    -3.4990    -2.8190 ho         1 2D4       0.420000
@<TRIPOS>BOND
     1     1     2 1   
     2     1     5 2   
     3     2     3 2   
     4     3     4 1   
     5     4     5 1   
     6     5     6 1   
     7     6     7 2   
     8     6     8 2   
     9     6     9 1   
    10     9    10 1   
    11    10    11 ar  
    12    10    12 ar  
    13    11    16 ar  
    14    12    13 ar  
    15    13    14 ar  
    16    14    15 1   
    17    14    16 ar  
    18    16    17 1   
    19    17    18 ar  
    20    17    26 ar  
    21    18    19 ar  
    22    18    23 ar  
    23    19    20 ar  
    24    20    21 ar  
    25    21    22 ar  
    26    22    23 ar  
    27    23    24 ar  
    28    24    25 ar  
    29    25    26 ar  
    30    26    27 1   
    31     1    28 1   
    32     2    29 1   
    33     3    30 1   
    34     9    31 1   
    35    11    32 1   
    36    12    33 1   
    37    13    34 1   
    38    15    35 1   
    39    19    36 1   
    40    20    37 1   
    41    21    38 1   
    42    22    39 1   
    43    24    40 1   
    44    25    41 1   
    45    27    42 1   
@<TRIPOS>SUBSTRUCTURE
     1 2D4         1 TEMP              0 ****  ****    0 ROOT
