@<TRIPOS>MOLECULE
molecule
   64    68     1     0     0
SMALL
bcc


@<TRIPOS>ATOM
      1 N01          0.0000     0.0000     0.0000 nv         1 2D5      -1.007500
      2 C02          1.3840     0.0000     0.0000 ca         1 2D5       0.783200
      3 N03          2.0640     0.0000     1.1420 nb         1 2D5      -0.817000
      4 C04          3.3850    -0.0010     1.1510 ca         1 2D5       0.730900
      5 N05          4.0990     0.0010     0.0460 nb         1 2D5      -0.776000
      6 C06          3.5060     0.0010    -1.1440 ca         1 2D5       0.469800
      7 C07          2.1030    -0.0060    -1.2070 ca         1 2D5      -0.197200
      8 N08          1.7630    -0.0120    -2.5190 nc         1 2D5      -0.585100
      9 C09          2.8410    -0.0150    -3.2460 cd         1 2D5       0.432700
     10 N10          3.9440     0.0020    -2.4450 na         1 2D5      -0.256000
     11 C11          5.3400     0.0040    -2.8890 c3         1 2D5       0.256800
     12 O12          5.4410     0.5450    -4.2250 os         1 2D5      -0.403600
     13 C13          6.6990     0.0570    -4.7380 c3         1 2D5       0.140100
     14 C14          6.7830    -1.4070    -4.2530 c3         1 2D5       0.090100
     15 O15          8.1260    -1.7410    -3.8970 oh         1 2D5      -0.568800
     16 C16          5.8680    -1.4430    -3.0090 c3         1 2D5       0.093100
     17 O17          6.6170    -1.8010    -1.8460 oh         1 2D5      -0.558800
     18 C18          6.7080     0.1130    -6.2670 c3         1 2D5       0.012700
     19 S19          6.6640     1.8440    -6.8090 ss         1 2D5      -0.318200
     20 C20          6.6810     1.7060    -8.6180 c3         1 2D5       0.011700
     21 C21          6.6460     3.1050    -9.2360 c3         1 2D5      -0.086400
     22 C22          6.6590     2.9890   -10.7610 c3         1 2D5       0.114000
     23 N23          6.6270     4.3280   -11.3540 ns         1 2D5      -0.589900
     24 C24          6.6320     4.4730   -12.6930 c          1 2D5       0.653100
     25 C25          6.5990     5.8510   -13.3020 c3         1 2D5       0.093500
     26 N26          6.1360     5.7640   -14.6970 n7         1 2D5      -0.786200
     27 C27          5.8480     7.1030   -15.2210 c3         1 2D5       0.204100
     28 C28          7.0290     8.0160   -15.0120 ca         1 2D5      -0.077300
     29 C29          7.0960     9.1860   -15.7520 ca         1 2D5      -0.124000
     30 C30          8.1570    10.0540   -15.5900 ca         1 2D5      -0.128000
     31 C31          9.1590     9.7550   -14.6860 ca         1 2D5      -0.126000
     32 C32          9.0940     8.5880   -13.9500 ca         1 2D5      -0.127000
     33 C33          8.0290     7.7160   -14.1130 ca         1 2D5      -0.065300
     34 C34          8.0050     6.4510   -13.2940 c3         1 2D5      -0.018100
     35 O35          6.6640     3.4940   -13.4100 o          1 2D5      -0.585100
     36 H011        -0.5000    -0.5040     0.7050 hn         1 2D5       0.448300
     37 H012        -0.5000     0.5170    -0.6960 hn         1 2D5       0.448300
     38 H041         3.8990    -0.0010     2.1040 h5         1 2D5       0.063100
     39 H091         2.8600    -0.0280    -4.3290 h5         1 2D5       0.087800
     40 H111         5.9580     0.5740    -2.2060 h2         1 2D5       0.114700
     41 H131         7.5200     0.6350    -4.3290 h1         1 2D5       0.092700
     42 H141         6.4090    -2.0790    -5.0160 h1         1 2D5       0.048700
     43 H151         8.4240    -2.4580    -4.4310 ho         1 2D5       0.403000
     44 H161         5.0470    -2.1320    -3.1650 h1         1 2D5       0.057700
     45 H171         6.4590    -2.7070    -1.6370 ho         1 2D5       0.410000
     46 H181         5.8400    -0.4080    -6.6530 h1         1 2D5       0.066700
     47 H182         7.6090    -0.3590    -6.6410 h1         1 2D5       0.066700
     48 H201         7.5820     1.1940    -8.9320 h1         1 2D5       0.060200
     49 H202         5.8130     1.1450    -8.9450 h1         1 2D5       0.060200
     50 H211         7.5140     3.6660    -8.9090 hc         1 2D5       0.060200
     51 H212         5.7450     3.6170    -8.9210 hc         1 2D5       0.060200
     52 H221         7.5600     2.4760   -11.0770 h1         1 2D5       0.054700
     53 H222         5.7920     2.4280   -11.0880 h1         1 2D5       0.054700
     54 H231         6.5880     5.1350   -10.7630 hn         1 2D5       0.314500
     55 H251         5.9290     6.4890   -12.7370 h1         1 2D5       0.032700
     56 H261         5.3080     5.2040   -14.7400 hn         1 2D5       0.369800
     57 H271         5.6560     7.0230   -16.2840 h1         1 2D5       0.047200
     58 H272         4.9990     7.5080   -14.6850 h1         1 2D5       0.047200
     59 H291         6.3110     9.4210   -16.4610 ha         1 2D5       0.129000
     60 H301         8.2040    10.9680   -16.1700 ha         1 2D5       0.130000
     61 H311         9.9940    10.4340   -14.5570 ha         1 2D5       0.130000
     62 H321         9.8800     8.3540   -13.2420 ha         1 2D5       0.130000
     63 H341         8.7010     5.7370   -13.7170 hc         1 2D5       0.063200
     64 H342         8.2910     6.6790   -12.2750 hc         1 2D5       0.063200
@<TRIPOS>BOND
     1     1     2 1   
     2     2     3 ar  
     3     2     7 ar  
     4     3     4 ar  
     5     4     5 ar  
     6     5     6 ar  
     7     6     7 ar  
     8     6    10 1   
     9     7     8 1   
    10     8     9 2   
    11     9    10 1   
    12    10    11 1   
    13    11    12 1   
    14    11    16 1   
    15    12    13 1   
    16    13    14 1   
    17    13    18 1   
    18    14    15 1   
    19    14    16 1   
    20    16    17 1   
    21    18    19 1   
    22    19    20 1   
    23    20    21 1   
    24    21    22 1   
    25    22    23 1   
    26    23    24 1   
    27    24    25 1   
    28    24    35 2   
    29    25    26 1   
    30    25    34 1   
    31    26    27 1   
    32    27    28 1   
    33    28    29 ar  
    34    28    33 ar  
    35    29    30 ar  
    36    30    31 ar  
    37    31    32 ar  
    38    32    33 ar  
    39    33    34 1   
    40     1    36 1   
    41     1    37 1   
    42     4    38 1   
    43     9    39 1   
    44    11    40 1   
    45    13    41 1   
    46    14    42 1   
    47    15    43 1   
    48    16    44 1   
    49    17    45 1   
    50    18    46 1   
    51    18    47 1   
    52    20    48 1   
    53    20    49 1   
    54    21    50 1   
    55    21    51 1   
    56    22    52 1   
    57    22    53 1   
    58    23    54 1   
    59    25    55 1   
    60    26    56 1   
    61    27    57 1   
    62    27    58 1   
    63    29    59 1   
    64    30    60 1   
    65    31    61 1   
    66    32    62 1   
    67    34    63 1   
    68    34    64 1   
@<TRIPOS>SUBSTRUCTURE
     1 2D5         1 TEMP              0 ****  ****    0 ROOT
