@<TRIPOS>MOLECULE
molecule
   56    59     1     0     0
SMALL
bcc


@<TRIPOS>ATOM
      1 N4           0.0000     0.0000     0.0000 ns         1 2D6      -0.584900
      2 C8           1.3490     0.0000     0.0000 c          1 2D6       0.664100
      3 O2           1.9540     0.0000     1.0510 o          1 2D6      -0.603100
      4 C9           2.1020    -0.0020    -1.3050 c3         1 2D6      -0.159400
      5 C10          3.6060    -0.0020    -1.0250 c3         1 2D6       0.022700
      6 S1           4.5110    -0.0040    -2.5920 ss         1 2D6      -0.225300
      7 C11          6.1670    -0.0040    -1.9890 cc         1 2D6       0.526800
      8 N2           7.1890    -0.0050    -2.8940 ns         1 2D6      -0.458400
      9 C12          8.4770    -0.0060    -2.4760 c          1 2D6       0.711100
     10 O3           9.3990    -0.0060    -3.2700 o          1 2D6      -0.619500
     11 N3           6.3600     0.0020    -0.6940 nd         1 2D6      -0.665100
     12 C13          7.5990     0.0030    -0.1630 ca         1 2D6       0.205400
     13 C14          8.7180    -0.0050    -1.0270 ca         1 2D6      -0.211600
     14 C15         10.0070    -0.0030    -0.4950 ca         1 2D6      -0.051000
     15 C16         10.1760     0.0040     0.8620 ca         1 2D6      -0.155000
     16 C17          9.0790     0.0100     1.7140 ca         1 2D6      -0.090000
     17 C18          7.8050     0.0100     1.2190 ca         1 2D6      -0.124000
     18 C19         -2.8870    -0.6000     2.3800 c3         1 2D6      -0.088900
     19 C20         -2.1220    -0.6000     1.0560 c3         1 2D6      -0.097400
     20 C21         -0.7330     0.0010     1.2690 c3         1 2D6       0.118700
     21 C22         -0.8720     1.4390     1.7750 c3         1 2D6      -0.097400
     22 C23         -1.6370     1.4400     3.1010 c3         1 2D6      -0.088900
     23 C24         -3.0270     0.8370     2.8880 c3         1 2D6       0.141100
     24 O1          -3.7420     0.8390     4.1240 os         1 2D6      -0.319900
     25 C1          -4.3990     1.9790     4.4550 ca         1 2D6       0.169100
     26 C2          -4.2680     3.1100     3.6580 ca         1 2D6      -0.200500
     27 C3          -4.9340     4.2690     3.9900 ca         1 2D6      -0.050500
     28 C4          -5.7420     4.3070     5.1300 ca         1 2D6      -0.065000
     29 C5          -5.8710     3.1670     5.9280 ca         1 2D6      -0.050500
     30 C6          -5.2060     2.0110     5.5860 ca         1 2D6      -0.200500
     31 C7          -6.4360     5.5110     5.4790 cg         1 2D6       0.243800
     32 N1          -6.9910     6.4570     5.7720 n1         1 2D6      -0.369800
     33 H1          -0.5000    -0.0290    -0.8660 hn         1 2D6       0.313500
     34 H2           1.6630     0.7260    -1.9760 hc         1 2D6       0.072700
     35 H3           2.0460    -0.9860    -1.7530 hc         1 2D6       0.072700
     36 H4           3.9510     1.0180    -0.9060 h1         1 2D6       0.106700
     37 H5           3.8040    -0.5590    -0.1170 h1         1 2D6       0.106700
     38 H6           6.9920     0.0160    -3.8750 hn         1 2D6       0.343500
     39 H7          10.8650     0.0090    -1.1560 ha         1 2D6       0.154000
     40 H8          11.1740     0.0050     1.2830 ha         1 2D6       0.136000
     41 H9           9.2270     0.0160     2.7870 ha         1 2D6       0.135000
     42 H10          6.9570     0.0270     1.8930 ha         1 2D6       0.151000
     43 H12         -2.4120    -1.2970     3.0600 hc         1 2D6       0.060200
     44 H13         -2.7330    -0.1240     0.2980 hc         1 2D6       0.053200
     45 H14         -1.9280    -1.6250     0.7640 hc         1 2D6       0.053200
     46 H15         -0.1970    -0.6000     1.9930 h1         1 2D6       0.086700
     47 H16          0.1120     1.8190     2.0250 hc         1 2D6       0.053200
     48 H17         -1.3010     2.0470     0.9890 hc         1 2D6       0.053200
     49 H18         -1.0270     0.9630     3.8580 hc         1 2D6       0.060200
     50 H19         -1.8310     2.4650     3.3920 hc         1 2D6       0.060200
     51 H20         -3.5650     1.4260     2.1540 h1         1 2D6       0.054700
     52 H21         -3.6060     3.0960     2.8010 ha         1 2D6       0.149000
     53 H22         -4.8310     5.1500     3.3680 ha         1 2D6       0.144500
     54 H23         -6.4960     3.1930     6.8130 ha         1 2D6       0.144500
     55 H24         -5.2730     1.1410     6.2280 ha         1 2D6       0.149000
     56 H11         -3.9060    -0.9190     2.1970 hc         1 2D6       0.060200
@<TRIPOS>BOND
     1    19    18 1
     2    19    20 1
     3    18    23 1
     4     3     2 2
     5     2     4 1
     6     2     1 1
     7     4     5 1
     8     1    20 1
     9    20    21 1
    10    16    17 ar
    11    16    15 ar
    12    23    24 1
    13    23    22 1
    14    24    25 1
    15    17    12 ar
    16    15    14 ar
    17     5     6 1
    18    25    30 ar
    19    25    26 ar
    20    30    29 ar
    21    12    11 1
    22    12    13 ar
    23    21    22 1
    24    11     7 2
    25    26    27 ar
    26    14    13 ar
    27    29    28 ar
    28    13     9 1
    29    27    28 ar
    30     7     6 1
    31     7     8 1
    32    28    31 1
    33     9     8 1
    34     9    10 2
    35    31    32 3
    36     1    33 1
    37     4    34 1
    38     4    35 1
    39     5    36 1
    40     5    37 1
    41     8    38 1
    42    14    39 1
    43    15    40 1
    44    16    41 1
    45    17    42 1
    46    18    56 1
    47    18    43 1
    48    19    44 1
    49    19    45 1
    50    20    46 1
    51    21    47 1
    52    21    48 1
    53    22    49 1
    54    22    50 1
    55    23    51 1
    56    26    52 1
    57    27    53 1
    58    29    54 1
    59    30    55 1
@<TRIPOS>SUBSTRUCTURE
     1 2D6         1 TEMP              0 ****  ****    0 ROOT
