@<TRIPOS>MOLECULE
2D6
   56    59     1     0     0
SMALL
bcc


@<TRIPOS>ATOM
      1 N4           0.0000     0.0000     0.0000 ns         1 2D6      -0.192900
      2 C8           1.3490     0.0000     0.0000 c          1 2D6       0.576100
      3 O2           1.9540     0.0000     1.0510 o          1 2D6      -0.642100
      4 C9           2.1020    -0.0020    -1.3050 c3         1 2D6      -0.091400
      5 C10          3.6060    -0.0020    -1.0250 c3         1 2D6       0.095700
      6 S1           4.5110    -0.0040    -2.5920 ss         1 2D6      -0.323300
      7 C11          6.1670    -0.0040    -1.9890 cc         1 2D6       0.344800
      8 N2           7.1890    -0.0050    -2.8940 ns         1 2D6       0.017600
      9 C12          8.4770    -0.0060    -2.4760 c          1 2D6       0.618100
     10 O3           9.3990    -0.0060    -3.2700 o          1 2D6      -0.659500
     11 N3           6.3600     0.0020    -0.6940 nd         1 2D6      -0.552100
     12 C13          7.5990     0.0030    -0.1630 ca         1 2D6       0.160400
     13 C14          8.7180    -0.0050    -1.0270 ca         1 2D6      -0.217600
     14 C15         10.0070    -0.0030    -0.4950 ca         1 2D6      -0.016000
     15 C16         10.1760     0.0040     0.8620 ca         1 2D6      -0.127000
     16 C17          9.0790     0.0100     1.7140 ca         1 2D6      -0.062000
     17 C18          7.8050     0.0100     1.2190 ca         1 2D6      -0.098000
     18 C19         -2.8870    -0.6000     2.3800 c3         1 2D6      -0.038900
     19 C20         -2.1220    -0.6000     1.0560 c3         1 2D6      -0.039400
     20 C21         -0.7330     0.0010     1.2690 c3         1 2D6       0.019700
     21 C22         -0.8720     1.4390     1.7750 c3         1 2D6      -0.039400
     22 C23         -1.6370     1.4400     3.1010 c3         1 2D6      -0.038900
     23 C24         -3.0270     0.8370     2.8880 c3         1 2D6       0.166100
     24 O1          -3.7420     0.8390     4.1240 os         1 2D6      -0.293900
     25 C1          -4.3990     1.9790     4.4550 ca         1 2D6       0.177100
     26 C2          -4.2680     3.1100     3.6580 ca         1 2D6      -0.186500
     27 C3          -4.9340     4.2690     3.9900 ca         1 2D6      -0.024000
     28 C4          -5.7420     4.3070     5.1300 ca         1 2D6      -0.023000
     29 C5          -5.8710     3.1670     5.9280 ca         1 2D6      -0.024000
     30 C6          -5.2060     2.0110     5.5860 ca         1 2D6      -0.186500
     31 C7          -6.4360     5.5110     5.4790 cg         1 2D6       0.237800
     32 N1          -6.9910     6.4570     5.7720 n1         1 2D6      -0.388800
     33 H1          -0.5000    -0.0290    -0.8660 hn         1 2D6       0.174500
     34 H2           1.6630     0.7260    -1.9760 hc         1 2D6       0.041200
     35 H3           2.0460    -0.9860    -1.7530 hc         1 2D6       0.041200
     36 H4           3.9510     1.0180    -0.9060 h1         1 2D6       0.078700
     37 H5           3.8040    -0.5590    -0.1170 h1         1 2D6       0.078700
     38 H6           6.9920     0.0160    -3.8750 hn         1 2D6       0.189500
     39 H7          10.8650     0.0090    -1.1560 ha         1 2D6       0.125000
     40 H8          11.1740     0.0050     1.2830 ha         1 2D6       0.108000
     41 H9           9.2270     0.0160     2.7870 ha         1 2D6       0.103000
     42 H10          6.9570     0.0270     1.8930 ha         1 2D6       0.122000
     43 H12         -2.4120    -1.2970     3.0600 hc         1 2D6       0.030450
     44 H13         -2.7330    -0.1240     0.2980 hc         1 2D6       0.023700
     45 H14         -1.9280    -1.6250     0.7640 hc         1 2D6       0.023700
     46 H15         -0.1970    -0.6000     1.9930 h1         1 2D6       0.063700
     47 H16          0.1120     1.8190     2.0250 hc         1 2D6       0.023700
     48 H17         -1.3010     2.0470     0.9890 hc         1 2D6       0.023700
     49 H18         -1.0270     0.9630     3.8580 hc         1 2D6       0.030450
     50 H19         -1.8310     2.4650     3.3920 hc         1 2D6       0.030450
     51 H20         -3.5650     1.4260     2.1540 h1         1 2D6       0.027700
     52 H21         -3.6060     3.0960     2.8010 ha         1 2D6       0.128000
     53 H22         -4.8310     5.1500     3.3680 ha         1 2D6       0.112500
     54 H23         -6.4960     3.1930     6.8130 ha         1 2D6       0.112500
     55 H24         -5.2730     1.1410     6.2280 ha         1 2D6       0.128000
     56 H11         -3.9060    -0.9190     2.1970 hc         1 2D6       0.030450
@<TRIPOS>BOND
     1     1     2 1   
     2     1    20 1   
     3     1    33 1   
     4     2     3 2   
     5     2     4 1   
     6     4     5 1   
     7     4    34 1   
     8     4    35 1   
     9     5     6 1   
    10     5    36 1   
    11     5    37 1   
    12     6     7 1   
    13     7     8 1   
    14     7    11 2   
    15     8     9 1   
    16     8    38 1   
    17     9    10 2   
    18     9    13 1   
    19    11    12 1   
    20    12    13 ar  
    21    12    17 ar  
    22    13    14 ar  
    23    14    15 ar  
    24    14    39 1   
    25    15    16 ar  
    26    15    40 1   
    27    16    17 ar  
    28    16    41 1   
    29    17    42 1   
    30    18    19 1   
    31    18    23 1   
    32    18    43 1   
    33    18    56 1   
    34    19    20 1   
    35    19    44 1   
    36    19    45 1   
    37    20    21 1   
    38    20    46 1   
    39    21    22 1   
    40    21    47 1   
    41    21    48 1   
    42    22    23 1   
    43    22    49 1   
    44    22    50 1   
    45    23    24 1   
    46    23    51 1   
    47    24    25 1   
    48    25    26 ar  
    49    25    30 ar  
    50    26    27 ar  
    51    26    52 1   
    52    27    28 ar  
    53    27    53 1   
    54    28    29 ar  
    55    28    31 1   
    56    29    30 ar  
    57    29    54 1   
    58    30    55 1   
    59    31    32 3   
@<TRIPOS>SUBSTRUCTURE
     1 2D6         1 TEMP              0 ****  ****    0 ROOT
