@<TRIPOS>MOLECULE
molecule
   40    42     1     0     0
SMALL
bcc


@<TRIPOS>ATOM
      1 O6           0.0000     0.0000     0.0000 o          1 2D7      -0.533100
      2 C17          1.2130     0.0000     0.0000 c          1 2D7       0.578700
      3 C18          1.9660     0.0000     1.3060 c3         1 2D7      -0.192100
      4 C14          1.9480     0.0010    -1.2710 ca         1 2D7      -0.204600
      5 C15          1.2510    -0.0010    -2.4850 ca         1 2D7      -0.060000
      6 C16          1.9390     0.0010    -3.6660 ca         1 2D7      -0.164500
      7 C13          3.3490     0.0070    -1.2720 ca         1 2D7      -0.060000
      8 C12          4.0280     0.0020    -2.4580 ca         1 2D7      -0.164500
      9 C11          3.3310     0.0010    -3.6630 ca         1 2D7       0.094600
     10 N3           4.0280     0.0030    -4.8680 ns         1 2D7      -0.476100
     11 C10          3.5230     0.6500    -5.9370 c          1 2D7       0.712700
     12 O5           2.5110     1.3160    -5.8240 o          1 2D7      -0.586100
     13 C8           4.1960     0.5510    -7.2410 cc         1 2D7      -0.355900
     14 C9           5.3690    -0.1790    -7.5260 cc         1 2D7       0.356200
     15 N1           5.6530    -0.0210    -8.7890 nd         1 2D7      -0.505800
     16 N2           4.6920     0.8070    -9.3780 na         1 2D7      -0.025600
     17 C7           3.7920     1.1570    -8.4320 cd         1 2D7       0.056700
     18 C5           2.6120     2.0220    -8.6200 ca         1 2D7      -0.070000
     19 C6           1.5670     1.6120    -9.4530 ca         1 2D7      -0.070000
     20 C1           0.4660     2.4220    -9.6250 ca         1 2D7      -0.022600
     21 Cl1         -0.8300     1.9120   -10.6600 cl         1 2D7      -0.085400
     22 C2           0.3910     3.6480    -8.9720 ca         1 2D7       0.156100
     23 O2          -0.6980     4.4420    -9.1470 oh         1 2D7      -0.505100
     24 C3           1.4230     4.0630    -8.1430 ca         1 2D7      -0.211000
     25 C4           2.5310     3.2550    -7.9590 ca         1 2D7       0.193100
     26 O4           3.5420     3.6610    -7.1480 oh         1 2D7      -0.487100
     27 H181         1.2610    -0.0030     2.1290 hc         1 2D7       0.059367
     28 H182         2.5870     0.8860     1.3650 hc         1 2D7       0.059367
     29 H183         2.5910    -0.8830     1.3620 hc         1 2D7       0.059367
     30 H15          0.1670    -0.0010    -2.4890 ha         1 2D7       0.145000
     31 H16          1.4000    -0.0000    -4.6060 ha         1 2D7       0.148500
     32 H13          3.8930     0.0070    -0.3350 ha         1 2D7       0.145000
     33 H12          5.1110     0.0040    -2.4600 ha         1 2D7       0.148500
     34 H3           4.8850    -0.5080    -4.9510 hn         1 2D7       0.322500
     35 H9           5.9370    -0.7700    -6.8180 h4         1 2D7       0.048100
     36 H2           4.6710     1.0890   -10.3380 hn         1 2D7       0.337700
     37 H6           1.6100     0.6450    -9.9390 ha         1 2D7       0.154000
     38 HA          -0.5200     5.0750    -9.8220 ho         1 2D7       0.426000
     39 HB           1.3590     5.0180    -7.6350 ha         1 2D7       0.158000
     40 H4           3.8330     4.5180    -7.4130 ho         1 2D7       0.421000
@<TRIPOS>BOND
     1     1     2 2
     2     2     3 1
     3     2     4 1
     4     3    27 1
     5     3    28 1
     6     3    29 1
     7     4     5 ar
     8     4     7 ar
     9     5     6 ar
    10     5    30 1
    11     6     9 ar
    12     6    31 1
    13     7     8 ar
    14     7    32 1
    15     8     9 ar
    16     8    33 1
    17     9    10 1
    18    10    11 1
    19    10    34 1
    20    11    12 2
    21    11    13 1
    22    13    14 1
    23    13    17 2
    24    14    15 2
    25    14    35 1
    26    15    16 1
    27    16    17 1
    28    16    36 1
    29    17    18 1
    30    18    19 ar
    31    18    25 ar
    32    19    20 ar
    33    19    37 1
    34    20    21 1
    35    20    22 ar
    36    22    23 1
    37    22    24 ar
    38    23    38 1
    39    24    25 ar
    40    24    39 1
    41    25    26 1
    42    26    40 1
@<TRIPOS>SUBSTRUCTURE
     1 2D7         1 TEMP              0 ****  ****    0 ROOT
