@<TRIPOS>MOLECULE
2D8
   25    24     1     0     0
SMALL
bcc


@<TRIPOS>ATOM
      1 C4          0.1970   -1.0600   -0.9730 c3        1 2D8     -0.416600
      2 C5          1.2060   -0.1220   -0.3270 c3        1 2D8     -0.179700
      3 C6          0.7000    0.3840    1.0580 c         1 2D8      0.913600
      4 C7          2.5490   -0.7890   -0.1590 c3        1 2D8     -0.060100
      5 N1         -2.8900   -0.3150   -0.8110 n3        1 2D8     -0.865800
      6 P          -0.6810   -0.2730   -2.0980 p5        1 2D8      1.527100
      7 C1         -2.3590    1.6540   -2.2930 c3        1 2D8     -0.112100
      8 C2         -1.8850    0.5830   -1.3320 c3        1 2D8     -0.188700
      9 O31         0.0200    0.4370   -3.1760 o         1 2D8     -0.908300
     10 O32        -1.4190   -1.4360   -2.9760 oh        1 2D8     -0.810400
     11 O61         1.0220   -0.2500    2.0960 o         1 2D8     -0.836800
     12 O62        -0.0240    1.4250    1.0530 o         1 2D8     -0.836800
     13 H1          0.7390   -1.9340   -1.4210 hc        1 2D8      0.106700
     14 H2         -0.4250   -1.5060   -0.1490 hc        1 2D8      0.106700
     15 H3          1.3310    0.7790   -0.9920 hc        1 2D8      0.042700
     16 H4          2.9430   -1.1610   -1.1360 hc        1 2D8      0.022367
     17 H5          2.4600   -1.6450    0.5520 hc        1 2D8      0.022367
     18 H6          3.2790   -0.0600    0.2680 hc        1 2D8      0.022367
     19 H10        -3.1310    2.3170   -1.8370 hc        1 2D8      0.041700
     20 H11        -1.4780    2.2720   -2.5990 hc        1 2D8      0.041700
     21 H12        -2.7840    1.1760   -3.2100 hc        1 2D8      0.041700
     22 H13        -1.4280    1.1170   -0.4190 h1        1 2D8      0.193700
     23 H14        -1.2240   -1.3740   -3.9070 ho        1 2D8      0.452000
     24 H7         -3.4840    0.1550   -0.1560 hn        1 2D8      0.340800
     25 H8         -3.4520   -0.6540   -1.5700 hn        1 2D8      0.340800
@<TRIPOS>BOND
     1    1    2 1   
     2    1    6 1   
     3    1   13 1   
     4    1   14 1   
     5    2    3 1   
     6    2    4 1   
     7    2   15 1   
     8    3   11 1   
     9    3   12 1   
    10    4   16 1   
    11    4   17 1   
    12    4   18 1   
    13    5    8 1   
    14    5   24 1   
    15    5   25 1   
    16    6    8 1   
    17    6    9 2   
    18    6   10 1   
    19    7    8 1   
    20    7   19 1   
    21    7   20 1   
    22    7   21 1   
    23    8   22 1   
    24   10   23 1   
@<TRIPOS>SUBSTRUCTURE
     1 2D8         1 TEMP              0 ****  ****    0 ROOT
