@<TRIPOS>MOLECULE
molecule
   54    57     1     0     0
SMALL
bcc


@<TRIPOS>ATOM
      1 C31          0.0000     0.0000     0.0000 c3         1 2D9      -0.225300
      2 S28          1.8140     0.0000     0.0000 sy         1 2D9       1.192300
      3 O29          2.3370     0.0000     1.3200 o          1 2D9      -0.616300
      4 O30          2.3380     0.8390    -1.0200 o          1 2D9      -0.616300
      5 C25          2.2160    -1.6160    -0.5790 ca         1 2D9      -0.298500
      6 C26          2.3730    -1.8450    -1.9340 ca         1 2D9      -0.031000
      7 C27          2.6880    -3.1110    -2.3880 ca         1 2D9      -0.142500
      8 C24          2.3780    -2.6520     0.3200 ca         1 2D9      -0.031000
      9 C23          2.6900    -3.9190    -0.1350 ca         1 2D9      -0.142500
     10 C19          2.8450    -4.1490    -1.4890 ca         1 2D9      -0.032300
     11 C18          3.1890    -5.5310    -1.9840 c3         1 2D9       0.174100
     12 N15          4.6490    -5.6820    -2.0400 n3         1 2D9      -0.666600
     13 C16          4.9150    -7.1040    -2.2900 c3         1 2D9       0.129800
     14 C17          6.4220    -7.3610    -2.2390 c3         1 2D9       0.139300
     15 C14          5.1550    -5.3840    -0.6940 c3         1 2D9       0.129800
     16 C13          6.6620    -5.6420    -0.6430 c3         1 2D9       0.139300
     17 N12          6.9290    -7.0630    -0.8940 nh         1 2D9      -0.514000
     18 C3           8.3250    -7.2090    -0.9470 cc         1 2D9      -0.116700
     19 C2           9.2700    -6.1880    -0.7870 cc         1 2D9       0.310200
     20 N1          10.4680    -6.7040    -0.9010 nd         1 2D9      -0.494800
     21 N5          10.3490    -8.0790    -1.1380 na         1 2D9      -0.039600
     22 C4           9.0160    -8.3860    -1.1590 cd         1 2D9      -0.037300
     23 C6           8.4260    -9.7230    -1.3790 ca         1 2D9      -0.052000
     24 C7           8.5760   -10.3610    -2.6110 ca         1 2D9      -0.081000
     25 C8           8.0240   -11.6090    -2.8130 ca         1 2D9      -0.022600
     26 Cl20         8.2090   -12.4010    -4.3460 cl         1 2D9      -0.085400
     27 C9           7.3180   -12.2330    -1.7900 ca         1 2D9       0.146100
     28 O21          6.7780   -13.4640    -1.9950 oh         1 2D9      -0.509100
     29 C10          7.1660   -11.6070    -0.5630 ca         1 2D9      -0.219000
     30 C11          7.7200   -10.3570    -0.3490 ca         1 2D9       0.171100
     31 O22          7.5710    -9.7420     0.8530 oh         1 2D9      -0.481100
     32 H311        -0.3610    -0.2070    -1.0000 h1         1 2D9       0.098367
     33 H312        -0.3610     0.9700     0.3210 h1         1 2D9       0.098367
     34 H313        -0.3610    -0.7630     0.6790 h1         1 2D9       0.098367
     35 H26          2.2500    -1.0310    -2.6390 ha         1 2D9       0.151500
     36 H27          2.8110    -3.2910    -3.4500 ha         1 2D9       0.140500
     37 H24          2.2570    -2.4720     1.3810 ha         1 2D9       0.151500
     38 H23          2.8150    -4.7320     0.5700 ha         1 2D9       0.140500
     39 H181         2.7730    -5.6730    -2.9740 h1         1 2D9       0.047700
     40 H182         2.7740    -6.2700    -1.3090 h1         1 2D9       0.047700
     41 H161         4.4240    -7.7010    -1.5310 h1         1 2D9       0.048450
     42 H162         4.5380    -7.3740    -3.2690 h1         1 2D9       0.048450
     43 H171         6.6170    -8.4000    -2.4740 h1         1 2D9       0.051450
     44 H172         6.9190    -6.7230    -2.9590 h1         1 2D9       0.051450
     45 H141         4.9600    -4.3450    -0.4580 h1         1 2D9       0.048450
     46 H142         4.6570    -6.0220     0.0270 h1         1 2D9       0.048450
     47 H131         7.0390    -5.3730     0.3360 h1         1 2D9       0.051450
     48 H132         7.1540    -5.0450    -1.4010 h1         1 2D9       0.051450
     49 H2           9.0460    -5.1450    -0.6010 h4         1 2D9       0.055100
     50 H5          11.1040    -8.7230    -1.2640 hn         1 2D9       0.334700
     51 H7           9.1560    -9.8920    -3.3960 ha         1 2D9       0.157000
     52 H21          5.8640   -13.3730    -2.2120 ho         1 2D9       0.429000
     53 H10          6.6170   -12.0990     0.2310 ha         1 2D9       0.155000
     54 H22          7.8590   -10.3200     1.5400 ho         1 2D9       0.422000
@<TRIPOS>BOND
     1     1     2 1   
     2     1    32 1   
     3     1    33 1   
     4     1    34 1   
     5     2     3 2   
     6     2     4 2   
     7     2     5 1   
     8     5     6 ar  
     9     5     8 ar  
    10     6     7 ar  
    11     6    35 1   
    12     7    10 ar  
    13     7    36 1   
    14     8     9 ar  
    15     8    37 1   
    16     9    10 ar  
    17     9    38 1   
    18    10    11 1   
    19    11    12 1   
    20    11    39 1   
    21    11    40 1   
    22    12    13 1   
    23    12    15 1   
    24    13    14 1   
    25    13    41 1   
    26    13    42 1   
    27    14    17 1   
    28    14    43 1   
    29    14    44 1   
    30    15    16 1   
    31    15    45 1   
    32    15    46 1   
    33    16    17 1   
    34    16    47 1   
    35    16    48 1   
    36    17    18 1   
    37    18    19 1   
    38    18    22 2   
    39    19    20 2   
    40    19    49 1   
    41    20    21 1   
    42    21    22 1   
    43    21    50 1   
    44    22    23 1   
    45    23    24 ar  
    46    23    30 ar  
    47    24    25 ar  
    48    24    51 1   
    49    25    26 1   
    50    25    27 ar  
    51    27    28 1   
    52    27    29 ar  
    53    28    52 1   
    54    29    30 ar  
    55    29    53 1   
    56    30    31 1   
    57    31    54 1   
@<TRIPOS>SUBSTRUCTURE
     1 2D9         1 TEMP              0 ****  ****    0 ROOT
