@<TRIPOS>MOLECULE
2DC
   76    79     1     0     0
SMALL
bcc


@<TRIPOS>ATOM
      1 C1         -0.1010    0.1170   -0.0350 c3        1 2DC     -0.066400
      2 O1          3.0090    1.2760    1.7220 oh        1 2DC     -0.602800
      3 C2          1.3040    0.6550    0.1010 c3        1 2DC     -0.113400
      4 O2         -5.7870   -5.9400   -0.4420 oh        1 2DC     -0.582800
      5 C3          1.6510    0.8780    1.5680 c3        1 2DC      0.145100
      6 O3         -8.0900   -4.6620    1.0540 oh        1 2DC     -0.587800
      7 C4          1.4900   -0.4150    2.3610 c3        1 2DC     -0.038200
      8 C5          0.1440   -1.0250    2.1580 c2        1 2DC     -0.112400
      9 C6         -0.5710   -1.4300    3.2190 c2        1 2DC     -0.164200
     10 C7         -1.8990   -2.0730    3.1380 c3        1 2DC     -0.043200
     11 C8         -2.2150   -2.5770    1.7370 c3        1 2DC     -0.047700
     12 C9         -1.8370   -1.5120    0.6990 c3        1 2DC     -0.048700
     13 C10        -0.3240   -1.1960    0.7340 c3        1 2DC      0.001200
     14 C11        -2.3090   -1.8880   -0.7000 c3        1 2DC     -0.074400
     15 C12        -3.7740   -2.2890   -0.7770 c3        1 2DC     -0.067400
     16 C13        -4.0830   -3.4060    0.2080 c3        1 2DC     -0.043000
     17 C14        -3.6950   -2.8680    1.6100 c3        1 2DC     -0.064700
     18 C15        -4.3280   -3.8620    2.5720 c3        1 2DC     -0.075400
     19 C16        -5.6170   -4.2960    1.8720 c3        1 2DC     -0.066400
     20 C17        -5.5840   -3.7260    0.4380 c3        1 2DC     -0.030700
     21 C18        -3.3240   -4.6710   -0.1500 c3        1 2DC     -0.078100
     22 C19         0.4880   -2.3100    0.0790 c3        1 2DC     -0.084100
     23 C20        -6.3050   -4.6240   -0.5840 c3        1 2DC      0.175800
     24 C21        -6.0830   -4.1120   -2.0100 c3        1 2DC     -0.135100
     25 C22        -7.8480   -4.6070   -0.3440 c3        1 2DC      0.114100
     26 C23        -8.5610   -5.7630   -1.0470 c3        1 2DC     -0.126400
     27 C24       -10.0380   -5.4820   -1.2220 c3        1 2DC     -0.077400
     28 C25       -10.7600   -6.6170   -1.9340 c3        1 2DC     -0.066700
     29 C26       -10.9550   -7.8090   -1.0200 c3        1 2DC     -0.091600
     30 C27       -12.0990   -6.1340   -2.4540 c3        1 2DC     -0.091600
     31 H1         -0.3200   -0.0540   -1.1210 hc        1 2DC      0.043200
     32 H1A        -0.8260    0.8860    0.3410 hc        1 2DC      0.043200
     33 HO1         3.1340    2.0530    1.1660 ho        1 2DC      0.398000
     34 H2          1.3920    1.6230   -0.4580 hc        1 2DC      0.046200
     35 H2A         2.0420   -0.0610   -0.3470 hc        1 2DC      0.046200
     36 HO2        -6.1810   -6.4780   -1.1390 ho        1 2DC      0.394000
     37 H3          0.9830    1.6780    1.9980 h1        1 2DC      0.035700
     38 HO3        -9.0440   -4.7500    1.1690 ho        1 2DC      0.397000
     39 H4          2.2850   -1.1410    2.0370 hc        1 2DC      0.059700
     40 H4A         1.6710   -0.1950    3.4460 hc        1 2DC      0.059700
     41 H6         -0.1860   -1.2840    4.2420 ha        1 2DC      0.121000
     42 H7         -2.6790   -1.3290    3.4610 hc        1 2DC      0.049700
     43 H7A        -1.9510   -2.9350    3.8570 hc        1 2DC      0.049700
     44 H8         -1.6200   -3.5120    1.5540 hc        1 2DC      0.059700
     45 H9         -2.3780   -0.5660    0.9950 hc        1 2DC      0.046700
     46 H11        -1.6900   -2.7370   -1.0940 hc        1 2DC      0.040200
     47 H11A       -2.1480   -1.0130   -1.3830 hc        1 2DC      0.040200
     48 H12        -4.4240   -1.4030   -0.5560 hc        1 2DC      0.037200
     49 H12A       -3.9940   -2.6170   -1.8260 hc        1 2DC      0.037200
     50 H14        -4.2350   -1.8840    1.7490 hc        1 2DC      0.042700
     51 H15        -3.6520   -4.7350    2.7460 hc        1 2DC      0.039700
     52 H15A       -4.5370   -3.3900    3.5620 hc        1 2DC      0.039700
     53 H16        -6.5100   -3.9020    2.4170 hc        1 2DC      0.060700
     54 H16A       -5.7010   -5.4100    1.8400 hc        1 2DC      0.060700
     55 H17        -6.1460   -2.7510    0.4240 hc        1 2DC      0.045700
     56 H18        -3.5990   -5.4940    0.5550 hc        1 2DC      0.038367
     57 H18A       -3.5860   -5.0040   -1.1830 hc        1 2DC      0.038367
     58 H18B       -2.2200   -4.5130   -0.1050 hc        1 2DC      0.038367
     59 H19         1.5730   -2.1940    0.3130 hc        1 2DC      0.037367
     60 H19A        0.1520   -3.3090    0.4480 hc        1 2DC      0.037367
     61 H19B        0.3690   -2.2790   -1.0310 hc        1 2DC      0.037367
     62 H21        -6.8210   -4.5560   -2.7200 hc        1 2DC      0.046033
     63 H21A       -6.1930   -3.0020   -2.0350 hc        1 2DC      0.046033
     64 H21B       -5.0610   -4.3860   -2.3620 hc        1 2DC      0.046033
     65 H22        -8.2400   -3.6250   -0.7370 h1        1 2DC      0.034700
     66 H23        -8.4160   -6.6950   -0.4370 hc        1 2DC      0.055700
     67 H23A       -8.1030   -5.9440   -2.0540 hc        1 2DC      0.055700
     68 H24       -10.1640   -4.5370   -1.8150 hc        1 2DC      0.040200
     69 H24A      -10.5180   -5.3110   -0.2220 hc        1 2DC      0.040200
     70 H25       -10.1340   -6.9410   -2.8140 hc        1 2DC      0.046700
     71 H26       -11.5750   -7.5280   -0.1350 hc        1 2DC      0.035200
     72 H26A       -9.9720   -8.1930   -0.6570 hc        1 2DC      0.035200
     73 H26B      -11.4760   -8.6320   -1.5670 hc        1 2DC      0.035200
     74 H27       -12.7370   -5.7670   -1.6140 hc        1 2DC      0.035200
     75 H27A      -11.9590   -5.3000   -3.1830 hc        1 2DC      0.035200
     76 H27B      -12.6370   -6.9670   -2.9680 hc        1 2DC      0.035200
@<TRIPOS>BOND
     1    1    3 1
     2    1   13 1
     3    1   31 1
     4    1   32 1
     5    2    5 1
     6    2   33 1
     7    3    5 1
     8    3   34 1
     9    3   35 1
    10    4   23 1
    11    4   36 1
    12    5    7 1
    13    5   37 1
    14    6   25 1
    15    6   38 1
    16    7    8 1
    17    7   39 1
    18    7   40 1
    19    8    9 2
    20    8   13 1
    21    9   10 1
    22    9   41 1
    23   10   11 1
    24   10   42 1
    25   10   43 1
    26   11   12 1
    27   11   17 1
    28   11   44 1
    29   12   13 1
    30   12   14 1
    31   12   45 1
    32   13   22 1
    33   14   15 1
    34   14   46 1
    35   14   47 1
    36   15   16 1
    37   15   48 1
    38   15   49 1
    39   16   17 1
    40   16   20 1
    41   16   21 1
    42   17   18 1
    43   17   50 1
    44   18   19 1
    45   18   51 1
    46   18   52 1
    47   19   20 1
    48   19   53 1
    49   19   54 1
    50   20   23 1
    51   20   55 1
    52   21   56 1
    53   21   57 1
    54   21   58 1
    55   22   59 1
    56   22   60 1
    57   22   61 1
    58   23   24 1
    59   23   25 1
    60   24   62 1
    61   24   63 1
    62   24   64 1
    63   25   26 1
    64   25   65 1
    65   26   27 1
    66   26   66 1
    67   26   67 1
    68   27   28 1
    69   27   68 1
    70   27   69 1
    71   28   29 1
    72   28   30 1
    73   28   70 1
    74   29   71 1
    75   29   72 1
    76   29   73 1
    77   30   74 1
    78   30   75 1
    79   30   76 1
@<TRIPOS>SUBSTRUCTURE
     1 2DC         1 TEMP              0 ****  ****    0 ROOT
