@<TRIPOS>MOLECULE
2DD
   44    46     1     0     0
SMALL
bcc


@<TRIPOS>ATOM
      1 Cl1          0.0000     0.0000     0.0000 cl         1 2DD       0.008600
      2 C1           1.7360     0.0000     0.0000 ca         1 2DD      -0.105600
      3 C2           2.4300     0.0000     1.2050 ca         1 2DD       0.182100
      4 C3           3.8170    -0.0010     1.2130 ca         1 2DD      -0.211000
      5 C4           4.5160    -0.0080     0.0200 ca         1 2DD       0.215100
      6 O4           5.8750    -0.0090     0.0270 oh         1 2DD      -0.480100
      7 O2           1.7460     0.0010     2.3800 oh         1 2DD      -0.492100
      8 C6           2.4230    -0.0020    -1.1950 ca         1 2DD      -0.038000
      9 C5           3.8200    -0.0030    -1.1960 ca         1 2DD      -0.083000
     10 C7           4.5590    -0.0040    -2.4730 cc         1 2DD      -0.090300
     11 N2           4.5650     0.9800    -3.4000 na         1 2DD       0.484400
     12 N1           5.3900     0.5850    -4.4590 nc         1 2DD      -0.656800
     13 C9           5.8840    -0.5950    -4.2020 cd         1 2DD       0.415200
     14 C8           5.3920    -1.0180    -2.9480 cd         1 2DD      -0.395900
     15 C10          5.6940    -2.2900    -2.2750 c          1 2DD       0.655700
     16 O5           5.2020    -2.5350    -1.1900 o          1 2DD      -0.640100
     17 N3           6.5170    -3.1830    -2.8600 ns         1 2DD      -0.220900
     18 C17          6.8180    -4.4500    -2.1890 c3         1 2DD       0.098300
     19 C11          7.7540    -5.2630    -3.0460 ca         1 2DD      -0.008300
     20 C12          9.1220    -5.1250    -2.8980 ca         1 2DD      -0.095500
     21 C13          9.9800    -5.8710    -3.6850 ca         1 2DD       0.013000
     22 C16          7.2450    -6.1450    -3.9800 ca         1 2DD      -0.095500
     23 C15          8.1030    -6.8870    -4.7700 ca         1 2DD       0.013000
     24 C14          9.4700    -6.7550    -4.6190 ca         1 2DD      -0.233500
     25 S1          10.5640    -7.7040    -5.6200 sy         1 2DD       0.941200
     26 O6           9.8150    -8.0690    -6.7710 o          1 2DD      -0.496300
     27 O7          11.7940    -6.9930    -5.6320 o          1 2DD      -0.496300
     28 N4          10.8700    -9.1200    -4.8160 nz         1 2DD      -0.131500
     29 H3           4.3520    -0.0010     2.1550 ha         1 2DD       0.129000
     30 H4           6.1860     0.6950     0.5720 ho         1 2DD       0.403000
     31 H2           1.6980    -0.8780     2.7170 ho         1 2DD       0.414000
     32 H6           1.8800     0.0020    -2.1330 ha         1 2DD       0.116000
     33 HA           4.0610     1.8430    -3.3410 hn         1 2DD       0.156700
     34 H9           6.5580    -1.1530    -4.8410 h4         1 2DD      -0.004900
     35 HB           6.8980    -2.9940    -3.7660 hn         1 2DD       0.177500
     36 H171         5.9000    -5.0030    -2.0320 h1         1 2DD       0.039200
     37 H172         7.2870    -4.2500    -1.2330 h1         1 2DD       0.039200
     38 H12          9.5210    -4.4330    -2.1670 ha         1 2DD       0.138000
     39 H13         11.0510    -5.7650    -3.5680 ha         1 2DD       0.127000
     40 H16          6.1730    -6.2490    -4.0990 ha         1 2DD       0.138000
     41 H15          7.7040    -7.5790    -5.5010 ha         1 2DD       0.127000
     42 H4N1        10.0110    -9.6120    -4.6690 hn         1 2DD       0.313467
     43 H4N2        11.2940    -8.9160    -3.9330 hn         1 2DD       0.313467
     44 H43         11.4900    -9.6860    -5.3610 hn         1 2DD       0.313467
@<TRIPOS>BOND
     1     1     2 1   
     2     2     3 ar  
     3     2     8 ar  
     4     3     4 ar  
     5     3     7 1   
     6     4     5 ar  
     7     4    29 1   
     8     5     6 1   
     9     5     9 ar  
    10     6    30 1   
    11     7    31 1   
    12     8     9 ar  
    13     8    32 1   
    14     9    10 1   
    15    10    11 1   
    16    10    14 2   
    17    11    12 1   
    18    11    33 1   
    19    12    13 2   
    20    13    14 1   
    21    13    34 1   
    22    14    15 1   
    23    15    16 2   
    24    15    17 1   
    25    17    18 1   
    26    17    35 1   
    27    18    19 1   
    28    18    36 1   
    29    18    37 1   
    30    19    20 ar  
    31    19    22 ar  
    32    20    21 ar  
    33    20    38 1   
    34    21    24 ar  
    35    21    39 1   
    36    22    23 ar  
    37    22    40 1   
    38    23    24 ar  
    39    23    41 1   
    40    24    25 1   
    41    25    26 2   
    42    25    27 2   
    43    25    28 1   
    44    28    42 1   
    45    28    43 1   
    46    28    44 1   
@<TRIPOS>SUBSTRUCTURE
     1 2DD         1 TEMP              0 ****  ****    0 ROOT
