@<TRIPOS>MOLECULE
molecule
   46    45     1     0     0
SMALL
bcc


@<TRIPOS>ATOM
      1 C1           0.0000     0.0000     0.0000 c3         1 2DE       0.251600
      2 O1           1.4300     0.0000     0.0000 os         1 2DE      -0.597200
      3 C2          -0.5020     0.0000     1.4220 c2         1 2DE      -0.102200
      4 C3          -1.4770     0.8020     1.7720 c2         1 2DE      -0.264200
      5 C5          -1.9790     0.8020     3.1920 c3         1 2DE      -0.027200
      6 C6          -1.9120     2.2220     3.7580 c3         1 2DE      -0.049200
      7 C7          -2.4140     2.2220     5.1780 c2         1 2DE      -0.176200
      8 C8          -1.6380     2.6370     6.1480 c2         1 2DE      -0.145400
      9 C9          -2.1810     2.7620     7.5470 c3         1 2DE      -0.057200
     10 PA           2.3060    -0.0000    -1.3500 p5         1 2DE       1.428800
     11 PB           5.1780     0.5850    -1.7930 p5         1 2DE       1.311900
     12 C10         -0.2000     2.9890     5.8630 c3         1 2DE      -0.048900
     13 C11         -1.8660     1.4860     8.3320 c3         1 2DE      -0.060200
     14 C12         -2.4100     1.6120     9.7330 c2         1 2DE      -0.543200
     15 C13         -3.2260     0.7020    10.2020 c2         1 2DE      -0.098400
     16 C14         -3.6220    -0.4720     9.3420 c3         1 2DE      -0.060900
     17 C15         -3.7700     0.8260    11.6020 c3         1 2DE      -0.060900
     18 O1A          1.9040     1.1430    -2.1990 o          1 2DE      -0.858000
     19 O1B          4.8790     1.8160    -2.5610 o          1 2DE      -0.854833
     20 O2A          2.0590    -1.3750    -2.1500 o          1 2DE      -0.858000
     21 O2B          6.3790     0.8760    -0.7600 o          1 2DE      -0.854833
     22 O3A          3.8670     0.1320    -0.9770 os         1 2DE      -0.714800
     23 O3B          5.6120    -0.5880    -2.8070 o          1 2DE      -0.854833
     24 H1          -0.3610    -0.8850    -0.5110 h1         1 2DE       0.027700
     25 H1A         -0.3610     0.8850    -0.5110 h1         1 2DE       0.027700
     26 H2          -0.0570    -0.6640     2.1530 ha         1 2DE       0.117000
     27 H3          -1.9220     1.4650     1.0400 ha         1 2DE       0.119000
     28 H5          -3.0040     0.4530     3.2120 hc         1 2DE       0.027700
     29 H5A         -1.3620     0.1440     3.7930 hc         1 2DE       0.027700
     30 H6          -0.8860     2.5710     3.7370 hc         1 2DE       0.053700
     31 H6A         -2.5290     2.8790     3.1570 hc         1 2DE       0.053700
     32 H7          -3.4470     1.9680     5.3840 ha         1 2DE       0.104000
     33 H9          -3.2530     2.9060     7.5070 hc         1 2DE       0.043200
     34 H9A         -1.7200     3.6110     8.0390 hc         1 2DE       0.043200
     35 H10          0.2680     3.3560     6.7690 hc         1 2DE       0.045033
     36 H10A        -0.1600     3.7570     5.1000 hc         1 2DE       0.045033
     37 H10B         0.3260     2.1080     5.5170 hc         1 2DE       0.045033
     38 H11         -2.3260     0.6370     7.8410 hc         1 2DE       0.044700
     39 H11A        -0.7930     1.3420     8.3730 hc         1 2DE       0.044700
     40 H12         -2.9660     1.8600     8.8360 ha         1 2DE       0.275000
     41 H14         -4.2330    -1.1540     9.9200 hc         1 2DE       0.024867
     42 H14A        -4.1850    -0.1190     8.4870 hc         1 2DE       0.024867
     43 H14B        -2.7310    -0.9860     9.0000 hc         1 2DE       0.024867
     44 H15         -2.9480     0.8740    12.3060 hc         1 2DE       0.024867
     45 H15A        -4.3640     1.7290    11.6800 hc         1 2DE       0.024867
     46 H15B        -4.3890    -0.0340    11.8270 hc         1 2DE       0.024867
@<TRIPOS>BOND
     1     1     2 1   
     2     1     3 1   
     3     2    10 1   
     4     3     4 2   
     5     4     5 1   
     6     5     6 1   
     7     6     7 1   
     8     7     8 2   
     9     8     9 1   
    10     8    12 1   
    11     9    13 1   
    12    10    18 1   
    13    10    20 1   
    14    10    22 1   
    15    11    19 1   
    16    11    21 1   
    17    11    22 1   
    18    11    23 1   
    19    13    14 1   
    20    14    15 2   
    21    15    16 1   
    22    15    17 1   
    23     1    24 1   
    24     1    25 1   
    25     3    26 1   
    26     4    27 1   
    27     5    28 1   
    28     5    29 1   
    29     6    30 1   
    30     6    31 1   
    31     7    32 1   
    32     9    33 1   
    33     9    34 1   
    34    12    35 1   
    35    12    36 1   
    36    12    37 1   
    37    13    38 1   
    38    13    39 1   
    39    14    40 1   
    40    16    41 1   
    41    16    42 1   
    42    16    43 1   
    43    17    44 1   
    44    17    45 1   
    45    17    46 1   
@<TRIPOS>SUBSTRUCTURE
     1 2DE         1 TEMP              0 ****  ****    0 ROOT
