@<TRIPOS>MOLECULE
molecule
   45    47     1     0     0
SMALL
bcc


@<TRIPOS>ATOM
      1 O            0.0000     0.0000     0.0000 o          1 2DH      -0.823800
      2 C            1.2080     0.0000     0.0000 c          1 2DH       0.881600
      3 OXT          1.8790     0.0000     1.1640 o          1 2DH      -0.823800
      4 CA           1.9620    -0.0050    -1.3040 c3         1 2DH      -0.086700
      5 N            1.0110    -0.0100    -2.4180 na         1 2DH       0.041600
      6 CBB          0.5620    -1.1280    -3.0830 ca         1 2DH      -0.043200
      7 CAO          0.8280    -2.4870    -2.9440 ca         1 2DH      -0.077000
      8 CAN          0.2160    -3.3990    -3.7750 ca         1 2DH      -0.204000
      9 CAW         -0.6720    -2.9720    -4.7620 ca         1 2DH       0.093100
     10 OAT         -1.2670    -3.8860    -5.5750 os         1 2DH      -0.342900
     11 CAA         -0.9350    -5.2600    -5.3600 c3         1 2DH       0.133700
     12 CAP         -0.9510    -1.6310    -4.9180 ca         1 2DH      -0.126000
     13 CBA         -0.3350    -0.6930    -4.0790 ca         1 2DH      -0.081800
     14 CAQ         -0.4040     0.7180    -3.9840 cc         1 2DH      -0.197200
     15 CAZ          0.4130     1.1050    -2.9700 cd         1 2DH      -0.099300
     16 CAV          0.6290     2.4930    -2.5320 c          1 2DH       0.719300
     17 OAC          1.4520     2.7380    -1.6720 o          1 2DH      -0.550100
     18 NAS         -0.0870     3.4930    -3.0840 ns         1 2DH      -0.652300
     19 SBE          0.2420     5.0650    -2.6850 sy         1 2DH       1.415900
     20 OAD         -0.6470     5.8690    -3.4490 o          1 2DH      -0.614300
     21 OAE          0.3090     5.1130    -1.2660 o          1 2DH      -0.614300
     22 CAY          1.8650     5.4240    -3.2700 ca         1 2DH      -0.287500
     23 CAL          2.0440     5.9260    -4.5460 ca         1 2DH      -0.021500
     24 CAJ          3.3170     6.2080    -5.0050 ca         1 2DH      -0.113000
     25 CAX          4.4110     5.9860    -4.1900 ca         1 2DH      -0.133300
     26 CBD          5.7980     6.2930    -4.6920 c3         1 2DH       0.668200
     27 FAH          5.8430     6.1180    -6.0790 f          1 2DH      -0.224300
     28 FAI          6.1260     7.6160    -4.3790 f          1 2DH      -0.224300
     29 FAG          6.7150     5.4290    -4.0830 f          1 2DH      -0.224300
     30 CAK          4.2310     5.4850    -2.9150 ca         1 2DH      -0.113000
     31 CAM          2.9590     5.2080    -2.4530 ca         1 2DH      -0.021500
     32 H2           2.5860    -0.8890    -1.3570 h1         1 2DH       0.065200
     33 H3           2.5840     0.8800    -1.3650 h1         1 2DH       0.065200
     34 H4           1.5170    -2.8280    -2.1810 ha         1 2DH       0.139000
     35 H5           0.4270    -4.4550    -3.6620 ha         1 2DH       0.125000
     36 H6          -1.2110    -5.5440    -4.3520 h1         1 2DH       0.032700
     37 H7           0.1310    -5.3990    -5.4960 h1         1 2DH       0.032700
     38 H8          -1.4740    -5.8770    -6.0690 h1         1 2DH       0.032700
     39 H9          -1.6420    -1.3040    -5.6850 ha         1 2DH       0.130000
     40 H10         -1.0070     1.3710    -4.6040 ha         1 2DH       0.131000
     41 H11         -0.8420     3.2830    -3.7070 hn         1 2DH       0.350500
     42 H12          1.1870     6.1000    -5.1850 ha         1 2DH       0.171500
     43 H13          3.4570     6.6010    -6.0050 ha         1 2DH       0.149000
     44 H14          5.0890     5.3140    -2.2750 ha         1 2DH       0.149000
     45 H15          2.8190     4.8150    -1.4530 ha         1 2DH       0.171500
@<TRIPOS>BOND
     1    10    11 1
     2    10     9 1
     3     8     9 ar
     4     8     7 ar
     5     9    12 ar
     6     7     6 ar
     7    12    13 ar
     8     6    13 ar
     9     6     5 1
    10    13    14 1
    11     4     5 1
    12     4     2 1
    13     5    15 1
    14     2     1 1
    15     2     3 1
    16    14    15 2
    17    15    16 1
    18    16    17 2
    19    16    18 1
    20    18    19 1
    21    19    20 2
    22    19    21 2
    23    19    22 1
    24    22    23 ar
    25    22    31 ar
    26    23    24 ar
    27    31    30 ar
    28    24    25 ar
    29    30    25 ar
    30    25    26 1
    31    29    26 1
    32    26    28 1
    33    26    27 1
    34     4    32 1
    35     4    33 1
    36     7    34 1
    37     8    35 1
    38    11    36 1
    39    11    37 1
    40    11    38 1
    41    12    39 1
    42    14    40 1
    43    18    41 1
    44    23    42 1
    45    24    43 1
    46    30    44 1
    47    31    45 1
@<TRIPOS>SUBSTRUCTURE
     1 2DH         1 TEMP              0 ****  ****    0 ROOT
