@<TRIPOS>MOLECULE
2DH
   45    47     1     0     0
SMALL
bcc


@<TRIPOS>ATOM
      1 O            0.0000     0.0000     0.0000 o          1 2DH      -0.875300
      2 C            1.2080     0.0000     0.0000 c          1 2DH       0.975600
      3 OXT          1.8790     0.0000     1.1640 o          1 2DH      -0.875300
      4 CA           1.9620    -0.0050    -1.3040 c3         1 2DH      -0.212700
      5 N            1.0110    -0.0100    -2.4180 na         1 2DH       0.583600
      6 CBB          0.5620    -1.1280    -3.0830 ca         1 2DH      -0.248200
      7 CAO          0.8280    -2.4870    -2.9440 ca         1 2DH      -0.024000
      8 CAN          0.2160    -3.3990    -3.7750 ca         1 2DH      -0.205000
      9 CAW         -0.6720    -2.9720    -4.7620 ca         1 2DH       0.103100
     10 OAT         -1.2670    -3.8860    -5.5750 os         1 2DH      -0.319900
     11 CAA         -0.9350    -5.2600    -5.3600 c3         1 2DH       0.244700
     12 CAP         -0.9510    -1.6310    -4.9180 ca         1 2DH      -0.107000
     13 CBA         -0.3350    -0.6930    -4.0790 ca         1 2DH      -0.074800
     14 CAQ         -0.4040     0.7180    -3.9840 cc         1 2DH      -0.183200
     15 CAZ          0.4130     1.1050    -2.9700 cd         1 2DH      -0.306300
     16 CAV          0.6290     2.4930    -2.5320 c          1 2DH       0.703300
     17 OAC          1.4520     2.7380    -1.6720 o          1 2DH      -0.596100
     18 NAS         -0.0870     3.4930    -3.0840 ns         1 2DH      -0.297300
     19 SBE          0.2420     5.0650    -2.6850 sy         1 2DH       1.037900
     20 OAD         -0.6470     5.8690    -3.4490 o          1 2DH      -0.571800
     21 OAE          0.3090     5.1130    -1.2660 o          1 2DH      -0.571800
     22 CAY          1.8650     5.4240    -3.2700 ca         1 2DH      -0.130500
     23 CAL          2.0440     5.9260    -4.5460 ca         1 2DH       0.009000
     24 CAJ          3.3170     6.2080    -5.0050 ca         1 2DH      -0.084000
     25 CAX          4.4110     5.9860    -4.1900 ca         1 2DH      -0.168300
     26 CBD          5.7980     6.2930    -4.6920 c3         1 2DH       0.633200
     27 FAH          5.8430     6.1180    -6.0790 f          1 2DH      -0.208633
     28 FAI          6.1260     7.6160    -4.3790 f          1 2DH      -0.208633
     29 FAG          6.7150     5.4290    -4.0830 f          1 2DH      -0.208633
     30 CAK          4.2310     5.4850    -2.9150 ca         1 2DH      -0.084000
     31 CAM          2.9590     5.2080    -2.4530 ca         1 2DH       0.009000
     32 H2           2.5860    -0.8890    -1.3570 h1         1 2DH       0.047200
     33 H3           2.5840     0.8800    -1.3650 h1         1 2DH       0.047200
     34 H4           1.5170    -2.8280    -2.1810 ha         1 2DH       0.107000
     35 H5           0.4270    -4.4550    -3.6620 ha         1 2DH       0.109000
     36 H6          -1.2110    -5.5440    -4.3520 h1         1 2DH      -0.009967
     37 H7           0.1310    -5.3990    -5.4960 h1         1 2DH      -0.009967
     38 H8          -1.4740    -5.8770    -6.0690 h1         1 2DH      -0.009967
     39 H9          -1.6420    -1.3040    -5.6850 ha         1 2DH       0.103000
     40 H10         -1.0070     1.3710    -4.6040 ha         1 2DH       0.112000
     41 H11         -0.8420     3.2830    -3.7070 hn         1 2DH       0.238500
     42 H12          1.1870     6.1000    -5.1850 ha         1 2DH       0.143000
     43 H13          3.4570     6.6010    -6.0050 ha         1 2DH       0.120000
     44 H14          5.0890     5.3140    -2.2750 ha         1 2DH       0.120000
     45 H15          2.8190     4.8150    -1.4530 ha         1 2DH       0.143000
@<TRIPOS>BOND
     1     1     2 1   
     2     2     3 1   
     3     2     4 1   
     4     4     5 1   
     5     4    32 1   
     6     4    33 1   
     7     5     6 1   
     8     5    15 1   
     9     6     7 ar  
    10     6    13 ar  
    11     7     8 ar  
    12     7    34 1   
    13     8     9 ar  
    14     8    35 1   
    15     9    10 1   
    16     9    12 ar  
    17    10    11 1   
    18    11    36 1   
    19    11    37 1   
    20    11    38 1   
    21    12    13 ar  
    22    12    39 1   
    23    13    14 1   
    24    14    15 2   
    25    14    40 1   
    26    15    16 1   
    27    16    17 2   
    28    16    18 1   
    29    18    19 1   
    30    18    41 1   
    31    19    20 2   
    32    19    21 2   
    33    19    22 1   
    34    22    23 ar  
    35    22    31 ar  
    36    23    24 ar  
    37    23    42 1   
    38    24    25 ar  
    39    24    43 1   
    40    25    26 1   
    41    25    30 ar  
    42    26    27 1   
    43    26    28 1   
    44    26    29 1   
    45    30    31 ar  
    46    30    44 1   
    47    31    45 1   
@<TRIPOS>SUBSTRUCTURE
     1 2DH         1 TEMP              0 ****  ****    0 ROOT
