@<TRIPOS>MOLECULE
molecule
   29    31     1     0     0
SMALL
bcc


@<TRIPOS>ATOM
      1 N9           0.0000     0.0000     0.0000 na         1 2DI      -0.182900
      2 C4           1.3680     0.0000     0.0000 cc         1 2DI       0.067800
      3 N3           2.3030     0.0000     0.9610 nc         1 2DI      -0.650100
      4 C2           3.5730    -0.0010     0.6670 cd         1 2DI       0.507800
      5 N1           4.0180    -0.0000    -0.6160 ns         1 2DI      -0.470400
      6 C6           3.1410     0.0010    -1.6440 c          1 2DI       0.621000
      7 O6           3.5310     0.0010    -2.7990 o          1 2DI      -0.607500
      8 C5           1.7560     0.0000    -1.3430 cd         1 2DI       0.226800
      9 N7           0.6270    -0.0000    -2.0880 nd         1 2DI      -0.634000
     10 C8          -0.4090    -0.0000    -1.3000 cc         1 2DI       0.440400
     11 C5'         -4.5190     0.0580     1.0030 c3         1 2DI       0.149400
     12 O5'         -4.9660    -1.2980     1.0420 oh         1 2DI      -0.598800
     13 C4'         -3.1310     0.1570     1.6380 c3         1 2DI       0.140100
     14 O4'         -2.1550    -0.5450     0.8390 os         1 2DI      -0.400600
     15 C1'         -0.8670    -0.0060     1.1810 c3         1 2DI       0.251800
     16 C2'         -1.0900     1.4370     1.6740 c3         1 2DI      -0.126400
     17 C3'         -2.6260     1.6230     1.6220 c3         1 2DI      -0.117400
     18 H2           4.2970    -0.0020     1.4730 h5         1 2DI       0.061800
     19 HN1          5.0020    -0.0010    -0.8010 hn         1 2DI       0.342500
     20 H8          -1.4410    -0.0010    -1.6280 h5         1 2DI       0.084100
     21 H5'1        -4.5000     0.4030    -0.0240 h1         1 2DI       0.031700
     22 H5'2        -5.1960     0.6780     1.5790 h1         1 2DI       0.031700
     23 H5'         -5.8410    -1.3510     0.6970 ho         1 2DI       0.406000
     24 H4'         -3.1400    -0.2290     2.6500 h1         1 2DI       0.067700
     25 H1'         -0.4190    -0.5980     1.9700 h2         1 2DI       0.089700
     26 H2'1        -0.7300     1.5490     2.6890 hc         1 2DI       0.071700
     27 H2'2        -0.6020     2.1420     1.0120 hc         1 2DI       0.071700
     28 H3'1        -2.9220     2.1210     0.7070 hc         1 2DI       0.062200
     29 H3'2        -2.9780     2.1600     2.4940 hc         1 2DI       0.062200
@<TRIPOS>BOND
     1     1     2 1   
     2     1    10 1   
     3     1    15 1   
     4     2     3 1   
     5     2     8 2   
     6     3     4 2   
     7     4     5 1   
     8     4    18 1   
     9     5     6 1   
    10     5    19 1   
    11     6     7 2   
    12     6     8 1   
    13     8     9 1   
    14     9    10 2   
    15    10    20 1   
    16    11    12 1   
    17    11    13 1   
    18    11    21 1   
    19    11    22 1   
    20    12    23 1   
    21    13    14 1   
    22    13    17 1   
    23    13    24 1   
    24    14    15 1   
    25    15    16 1   
    26    15    25 1   
    27    16    17 1   
    28    16    26 1   
    29    16    27 1   
    30    17    28 1   
    31    17    29 1   
@<TRIPOS>SUBSTRUCTURE
     1 2DI         1 TEMP              0 ****  ****    0 ROOT
