@<TRIPOS>MOLECULE
2DJ
   54    56     1     0     0
SMALL
bcc


@<TRIPOS>ATOM
      1 OXT          0.0000     0.0000     0.0000 o          1 2DJ      -0.875800
      2 C            1.3420     0.0000     0.0000 c          1 2DJ       0.977600
      3 O            1.9460     0.0000     1.0460 o          1 2DJ      -0.875800
      4 CA           2.0960    -0.0010    -1.3050 c3         1 2DJ      -0.213700
      5 N            3.5360    -0.0020    -1.0370 na         1 2DJ       0.581600
      6 CBB          4.3420     1.1130    -0.9840 ca         1 2DJ      -0.248200
      7 CAO          4.0940     2.4720    -1.1470 ca         1 2DJ      -0.024000
      8 CAN          5.1230     3.3790    -1.0360 ca         1 2DJ      -0.207000
      9 CAW          6.4200     2.9490    -0.7590 ca         1 2DJ       0.102100
     10 OAT          7.4250     3.8570    -0.6510 os         1 2DJ      -0.319900
     11 CAA          7.0800     5.2320    -0.8350 c3         1 2DJ       0.244700
     12 CAP          6.6880     1.6070    -0.5920 ca         1 2DJ      -0.108000
     13 CBA          5.6500     0.6720    -0.7040 ca         1 2DJ      -0.074800
     14 CAQ          5.5960    -0.7370    -0.5920 cc         1 2DJ      -0.184200
     15 CAZ          4.3080    -1.1210    -0.7920 cd         1 2DJ      -0.302300
     16 CAV          3.8160    -2.5060    -0.7560 c          1 2DJ       0.701300
     17 OAF          2.6570    -2.7460    -1.0400 o          1 2DJ      -0.596100
     18 NAS          4.6470    -3.5080    -0.4100 ns         1 2DJ      -0.296300
     19 SBE          4.1290    -5.0790    -0.4920 sy         1 2DJ       1.039900
     20 OAG          5.2320    -5.8860    -0.1020 o          1 2DJ      -0.577300
     21 OAH          2.8680    -5.1200     0.1590 o          1 2DJ      -0.577300
     22 CAY          3.8250    -5.4410    -2.1900 ca         1 2DJ      -0.163500
     23 CAL          2.5740    -5.2100    -2.7320 ca         1 2DJ       0.018500
     24 CAJ          2.3350    -5.4930    -4.0630 ca         1 2DJ      -0.149500
     25 CAX          3.3470    -6.0070    -4.8530 ca         1 2DJ      -0.031300
     26 CBD          3.0860    -6.3170    -6.3050 c3         1 2DJ      -0.020700
     27 CAC          1.9700    -7.3570    -6.4120 c3         1 2DJ       0.005900
     28 CAD          2.6630    -5.0380    -7.0310 c3         1 2DJ       0.005900
     29 CAB          4.3610    -6.8680    -6.9450 c3         1 2DJ       0.005900
     30 CAK          4.5980    -6.2360    -4.3110 ca         1 2DJ      -0.149500
     31 CAM          4.8380    -5.9490    -2.9800 ca         1 2DJ       0.018500
     32 H2           1.8350     0.8830    -1.8740 h1         1 2DJ       0.046700
     33 H3           1.8330    -0.8860    -1.8730 h1         1 2DJ       0.046700
     34 H4           3.0900     2.8180    -1.3630 ha         1 2DJ       0.107000
     35 H5           4.9230     4.4360    -1.1640 ha         1 2DJ       0.108000
     36 H6           6.6660     5.3710    -1.8260 h1         1 2DJ      -0.010300
     37 H7           6.3460     5.5220    -0.0930 h1         1 2DJ      -0.010300
     38 H8           7.9660     5.8450    -0.7240 h1         1 2DJ      -0.010300
     39 H9           7.6970     1.2760    -0.3770 ha         1 2DJ       0.102000
     40 H10          6.4310    -1.3930    -0.3780 ha         1 2DJ       0.113000
     41 H11          5.5660    -3.3010    -0.0720 hn         1 2DJ       0.235500
     42 H12          1.7810    -4.8070    -2.1130 ha         1 2DJ       0.135000
     43 H13          1.3560    -5.3130    -4.4880 ha         1 2DJ       0.117000
     44 H14          1.8830    -7.6890    -7.4400 hc         1 2DJ       0.006811
     45 H15          1.0330    -6.9150    -6.0950 hc         1 2DJ       0.006811
     46 H16          2.2030    -8.2040    -5.7780 hc         1 2DJ       0.006811
     47 H17          3.3830    -4.2540    -6.8300 hc         1 2DJ       0.006811
     48 H18          2.6210    -5.2260    -8.0970 hc         1 2DJ       0.006811
     49 H19          1.6860    -4.7300    -6.6790 hc         1 2DJ       0.006811
     50 H20          4.1740    -7.0910    -7.9890 hc         1 2DJ       0.006811
     51 H21          4.6610    -7.7740    -6.4310 hc         1 2DJ       0.006811
     52 H22          5.1520    -6.1310    -6.8700 hc         1 2DJ       0.006811
     53 H23          5.3910    -6.6370    -4.9310 ha         1 2DJ       0.117000
     54 H24          5.8180    -6.1290    -2.5560 ha         1 2DJ       0.135000
@<TRIPOS>BOND
     1     1     2 1   
     2     2     3 1   
     3     2     4 1   
     4     4     5 1   
     5     4    32 1   
     6     4    33 1   
     7     5     6 1   
     8     5    15 1   
     9     6     7 ar  
    10     6    13 ar  
    11     7     8 ar  
    12     7    34 1   
    13     8     9 ar  
    14     8    35 1   
    15     9    10 1   
    16     9    12 ar  
    17    10    11 1   
    18    11    36 1   
    19    11    37 1   
    20    11    38 1   
    21    12    13 ar  
    22    12    39 1   
    23    13    14 1   
    24    14    15 2   
    25    14    40 1   
    26    15    16 1   
    27    16    17 2   
    28    16    18 1   
    29    18    19 1   
    30    18    41 1   
    31    19    20 2   
    32    19    21 2   
    33    19    22 1   
    34    22    23 ar  
    35    22    31 ar  
    36    23    24 ar  
    37    23    42 1   
    38    24    25 ar  
    39    24    43 1   
    40    25    26 1   
    41    25    30 ar  
    42    26    27 1   
    43    26    28 1   
    44    26    29 1   
    45    27    44 1   
    46    27    45 1   
    47    27    46 1   
    48    28    47 1   
    49    28    48 1   
    50    28    49 1   
    51    29    50 1   
    52    29    51 1   
    53    29    52 1   
    54    30    31 ar  
    55    30    53 1   
    56    31    54 1   
@<TRIPOS>SUBSTRUCTURE
     1 2DJ         1 TEMP              0 ****  ****    0 ROOT
