@<TRIPOS>MOLECULE
molecule
   45    47     1     0     0
SMALL
bcc


@<TRIPOS>ATOM
      1 OXT          0.0000     0.0000     0.0000 o          1 2DK      -0.824300
      2 C            1.3420     0.0000     0.0000 c          1 2DK       0.882600
      3 O            1.9470     0.0000     1.0460 o          1 2DK      -0.824300
      4 CA           2.0950    -0.0000    -1.3060 c3         1 2DK      -0.085700
      5 N            3.5360     0.0010    -1.0390 na         1 2DK       0.039600
      6 CAX          4.3400     1.1170    -0.9840 ca         1 2DK      -0.043200
      7 CAH          4.0910     2.4760    -1.1460 ca         1 2DK      -0.077000
      8 CAG          5.1210     3.3830    -1.0320 ca         1 2DK      -0.206000
      9 CAU          6.4180     2.9530    -0.7560 ca         1 2DK       0.092100
     10 OAQ          7.4220     3.8630    -0.6490 os         1 2DK      -0.342900
     11 CAA          7.0760     5.2370    -0.8310 c3         1 2DK       0.134700
     12 CAI          6.6870     1.6120    -0.5910 ca         1 2DK      -0.126000
     13 CAW          5.6490     0.6780    -0.7040 ca         1 2DK      -0.082800
     14 CAJ          5.5970    -0.7340    -0.5940 cc         1 2DK      -0.198200
     15 CAV          4.3090    -1.1180    -0.7950 cd         1 2DK      -0.097300
     16 CAT          3.8170    -2.5030    -0.7600 c          1 2DK       0.720300
     17 OAC          2.6590    -2.7440    -1.0440 o          1 2DK      -0.552100
     18 NAP          4.6490    -3.5050    -0.4150 ns         1 2DK      -0.661300
     19 SBA          4.1320    -5.0760    -0.4980 s6         1 2DK       1.540500
     20 OAD          5.2350    -5.8830    -0.1090 o          1 2DK      -0.632300
     21 OAE          2.8700    -5.1180     0.1530 o          1 2DK      -0.632300
     22 NAY          3.8460    -5.4150    -2.0950 n3         1 2DK      -0.824500
     23 CAM          4.9090    -5.9550    -2.9560 c3         1 2DK       0.198800
     24 CAK          4.3640    -7.1930    -3.6760 c3         1 2DK       0.125900
     25 OAR          3.1330    -6.8590    -4.3210 os         1 2DK      -0.427600
     26 CAL          2.0920    -6.4600    -3.4240 c3         1 2DK       0.125900
     27 CAN          2.5190    -5.1890    -2.6900 c3         1 2DK       0.198800
     28 H2           1.8330     0.8840    -1.8740 h1         1 2DK       0.065200
     29 H3           1.8340    -0.8850    -1.8730 h1         1 2DK       0.065200
     30 H4           3.0870     2.8210    -1.3610 ha         1 2DK       0.138000
     31 H5           4.9210     4.4400    -1.1590 ha         1 2DK       0.124000
     32 H6           6.6610     5.3770    -1.8220 h1         1 2DK       0.031700
     33 H7           6.3420     5.5260    -0.0880 h1         1 2DK       0.031700
     34 H8           7.9620     5.8510    -0.7200 h1         1 2DK       0.031700
     35 H9           7.6960     1.2810    -0.3770 ha         1 2DK       0.129000
     36 H10          6.4330    -1.3890    -0.3800 ha         1 2DK       0.131000
     37 H11          5.5650    -3.2980    -0.0680 hn         1 2DK       0.346500
     38 H12          5.2000    -5.2090    -3.6860 h1         1 2DK       0.070950
     39 H13          5.7620    -6.2330    -2.3500 h1         1 2DK       0.070950
     40 H14          4.1910    -7.9830    -2.9550 h1         1 2DK       0.050200
     41 H15          5.0810    -7.5240    -4.4180 h1         1 2DK       0.050200
     42 H16          1.9140    -7.2500    -2.7040 h1         1 2DK       0.050200
     43 H17          1.1870    -6.2650    -3.9860 h1         1 2DK       0.050200
     44 H18          1.8040    -4.9640    -1.9080 h1         1 2DK       0.070950
     45 H19          2.5720    -4.3650    -3.3920 h1         1 2DK       0.070950
@<TRIPOS>BOND
     1    10    11 1   
     2    10     9 1   
     3     8     9 ar  
     4     8     7 ar  
     5     9    12 ar  
     6     7     6 ar  
     7    12    13 ar  
     8     6    13 ar  
     9     6     5 1   
    10    13    14 1   
    11     5     4 1   
    12     5    15 1   
    13     4     2 1   
    14     3     2 1   
    15     2     1 1   
    16    14    15 2   
    17    15    16 1   
    18    16    18 1   
    19    16    17 2   
    20    18    19 1   
    21    23    22 1   
    22    23    24 1   
    23    27    22 1   
    24    27    26 1   
    25    25    26 1   
    26    25    24 1   
    27    19    22 1   
    28    19    20 2   
    29    19    21 2   
    30     4    28 1   
    31     4    29 1   
    32     7    30 1   
    33     8    31 1   
    34    11    32 1   
    35    11    33 1   
    36    11    34 1   
    37    12    35 1   
    38    14    36 1   
    39    18    37 1   
    40    23    38 1   
    41    23    39 1   
    42    24    40 1   
    43    24    41 1   
    44    26    42 1   
    45    26    43 1   
    46    27    44 1   
    47    27    45 1   
@<TRIPOS>SUBSTRUCTURE
     1 2DK         1 TEMP              0 ****  ****    0 ROOT
