@<TRIPOS>MOLECULE
2DK
   45    47     1     0     0
SMALL
bcc


@<TRIPOS>ATOM
      1 OXT          0.0000     0.0000     0.0000 o          1 2DK      -0.875800
      2 C            1.3420     0.0000     0.0000 c          1 2DK       0.977600
      3 O            1.9470     0.0000     1.0460 o          1 2DK      -0.875800
      4 CA           2.0950    -0.0000    -1.3060 c3         1 2DK      -0.212700
      5 N            3.5360     0.0010    -1.0390 na         1 2DK       0.580600
      6 CAX          4.3400     1.1170    -0.9840 ca         1 2DK      -0.247200
      7 CAH          4.0910     2.4760    -1.1460 ca         1 2DK      -0.024000
      8 CAG          5.1210     3.3830    -1.0320 ca         1 2DK      -0.207000
      9 CAU          6.4180     2.9530    -0.7560 ca         1 2DK       0.102100
     10 OAQ          7.4220     3.8630    -0.6490 os         1 2DK      -0.319900
     11 CAA          7.0760     5.2370    -0.8310 c3         1 2DK       0.244700
     12 CAI          6.6870     1.6120    -0.5910 ca         1 2DK      -0.107000
     13 CAW          5.6490     0.6780    -0.7040 ca         1 2DK      -0.074800
     14 CAJ          5.5970    -0.7340    -0.5940 cc         1 2DK      -0.184200
     15 CAV          4.3090    -1.1180    -0.7950 cd         1 2DK      -0.303300
     16 CAT          3.8170    -2.5030    -0.7600 c          1 2DK       0.704300
     17 OAC          2.6590    -2.7440    -1.0440 o          1 2DK      -0.595100
     18 NAP          4.6490    -3.5050    -0.4150 ns         1 2DK      -0.309300
     19 SBA          4.1320    -5.0760    -0.4980 s6         1 2DK       1.125500
     20 OAD          5.2350    -5.8830    -0.1090 o          1 2DK      -0.573800
     21 OAE          2.8700    -5.1180     0.1530 o          1 2DK      -0.573800
     22 NAY          3.8460    -5.4150    -2.0950 n3         1 2DK      -0.535500
     23 CAM          4.9090    -5.9550    -2.9560 c3         1 2DK       0.190800
     24 CAK          4.3640    -7.1930    -3.6760 c3         1 2DK       0.199400
     25 OAR          3.1330    -6.8590    -4.3210 os         1 2DK      -0.418600
     26 CAL          2.0920    -6.4600    -3.4240 c3         1 2DK       0.199400
     27 CAN          2.5190    -5.1890    -2.6900 c3         1 2DK       0.190800
     28 H2           1.8330     0.8840    -1.8740 h1         1 2DK       0.047200
     29 H3           1.8340    -0.8850    -1.8730 h1         1 2DK       0.047200
     30 H4           3.0870     2.8210    -1.3610 ha         1 2DK       0.107000
     31 H5           4.9210     4.4400    -1.1590 ha         1 2DK       0.109000
     32 H6           6.6610     5.3770    -1.8220 h1         1 2DK      -0.009967
     33 H7           6.3420     5.5260    -0.0880 h1         1 2DK      -0.009967
     34 H8           7.9620     5.8510    -0.7200 h1         1 2DK      -0.009967
     35 H9           7.6960     1.2810    -0.3770 ha         1 2DK       0.103000
     36 H10          6.4330    -1.3890    -0.3800 ha         1 2DK       0.112000
     37 H11          5.5650    -3.2980    -0.0680 hn         1 2DK       0.237500
     38 H12          5.2000    -5.2090    -3.6860 h1         1 2DK       0.038200
     39 H13          5.7620    -6.2330    -2.3500 h1         1 2DK       0.038200
     40 H14          4.1910    -7.9830    -2.9550 h1         1 2DK       0.009200
     41 H15          5.0810    -7.5240    -4.4180 h1         1 2DK       0.009200
     42 H16          1.9140    -7.2500    -2.7040 h1         1 2DK       0.009200
     43 H17          1.1870    -6.2650    -3.9860 h1         1 2DK       0.009200
     44 H18          1.8040    -4.9640    -1.9080 h1         1 2DK       0.038200
     45 H19          2.5720    -4.3650    -3.3920 h1         1 2DK       0.038200
@<TRIPOS>BOND
     1     1     2 1   
     2     2     3 1   
     3     2     4 1   
     4     4     5 1   
     5     4    28 1   
     6     4    29 1   
     7     5     6 1   
     8     5    15 1   
     9     6     7 ar  
    10     6    13 ar  
    11     7     8 ar  
    12     7    30 1   
    13     8     9 ar  
    14     8    31 1   
    15     9    10 1   
    16     9    12 ar  
    17    10    11 1   
    18    11    32 1   
    19    11    33 1   
    20    11    34 1   
    21    12    13 ar  
    22    12    35 1   
    23    13    14 1   
    24    14    15 2   
    25    14    36 1   
    26    15    16 1   
    27    16    17 2   
    28    16    18 1   
    29    18    19 1   
    30    18    37 1   
    31    19    20 2   
    32    19    21 2   
    33    19    22 1   
    34    22    23 1   
    35    22    27 1   
    36    23    24 1   
    37    23    38 1   
    38    23    39 1   
    39    24    25 1   
    40    24    40 1   
    41    24    41 1   
    42    25    26 1   
    43    26    27 1   
    44    26    42 1   
    45    26    43 1   
    46    27    44 1   
    47    27    45 1   
@<TRIPOS>SUBSTRUCTURE
     1 2DK         1 TEMP              0 ****  ****    0 ROOT
