@<TRIPOS>MOLECULE
molecule
   33    33     1     0     0
SMALL
bcc


@<TRIPOS>ATOM
      1 C1           0.0000     0.0000     0.0000 ca         1 2DL       0.098100
      2 C2           1.3940     0.0000     0.0000 ca         1 2DL       0.117100
      3 C3           2.0840     0.0000     1.1970 ca         1 2DL      -0.157000
      4 C4           1.3810     0.0010     2.4050 ca         1 2DL      -0.116600
      5 C5          -0.0150     0.0010     2.3970 ca         1 2DL      -0.145000
      6 C6          -0.6980     0.0010     1.1990 ca         1 2DL      -0.148000
      7 O7          -0.6770     0.0050    -1.1770 oh         1 2DL      -0.501100
      8 C9           3.3360    -1.8410     6.1110 c3         1 2DL      -0.118100
      9 C10          2.3470    -0.6770     6.0150 c3         1 2DL       0.096000
     10 C12          0.4710    -1.5710     4.5600 c3         1 2DL       0.096000
     11 C13         -0.7420    -0.8710     5.1770 c3         1 2DL      -0.118100
     12 C14          2.1130     0.0010     3.6870 c          1 2DL       0.675700
     13 O15          3.1290     0.6600     3.8070 o          1 2DL      -0.605100
     14 O16          2.0750    -0.0010    -1.1780 os         1 2DL      -0.312900
     15 N3           1.6570    -0.7280     4.7240 n          1 2DL      -0.485800
     16 C15          3.5020    -0.0010    -1.1020 c3         1 2DL       0.123700
     17 H6          -1.7810     0.0010     1.1940 ha         1 2DL       0.144000
     18 H7          -1.0960    -0.8310    -1.3020 ho         1 2DL       0.417000
     19 H3           3.1680    -0.0000     1.1990 ha         1 2DL       0.159000
     20 H5          -0.5620     0.0020     3.3320 ha         1 2DL       0.153000
     21 H91C         2.8140    -2.7320     6.4400 hc         1 2DL       0.042700
     22 H92C         3.7770    -2.0200     5.1380 hc         1 2DL       0.042700
     23 H93C         4.1150    -1.5960     6.8220 hc         1 2DL       0.042700
     24 H101         2.8840     0.2600     6.1020 h1         1 2DL       0.059450
     25 H102         1.6210    -0.7530     6.8160 h1         1 2DL       0.059450
     26 H121         0.6170    -2.5310     5.0410 h1         1 2DL       0.059450
     27 H122         0.3010    -1.7200     3.5010 h1         1 2DL       0.059450
     28 H131        -1.6220    -1.0800     4.5800 hc         1 2DL       0.042700
     29 H132        -0.5680     0.1980     5.2020 hc         1 2DL       0.042700
     30 H133        -0.8950    -1.2360     6.1860 hc         1 2DL       0.042700
     31 H151         3.8360    -0.8860    -0.5740 h1         1 2DL       0.044367
     32 H152         3.9160     0.0010    -2.1030 h1         1 2DL       0.044367
     33 H153         3.8350     0.8830    -0.5720 h1         1 2DL       0.044367
@<TRIPOS>BOND
     1     1     2 ar
     2     1     6 ar
     3     1     7 1
     4     2     3 ar
     5     2    14 1
     6     3     4 ar
     7     4     5 ar
     8     4    12 1
     9     5     6 ar
    10     8     9 1
    11     9    15 1
    12    10    11 1
    13    10    15 1
    14    12    13 2
    15    12    15 1
    16    14    16 1
    17     6    17 1
    18     7    18 1
    19     3    19 1
    20     5    20 1
    21     8    21 1
    22     8    22 1
    23     8    23 1
    24     9    24 1
    25     9    25 1
    26    10    26 1
    27    10    27 1
    28    11    28 1
    29    11    29 1
    30    11    30 1
    31    16    31 1
    32    16    32 1
    33    16    33 1
@<TRIPOS>SUBSTRUCTURE
     1 2DL         1 TEMP              0 ****  ****    0 ROOT
