@<TRIPOS>MOLECULE
2DL
   33    33     1     0     0
SMALL
bcc


@<TRIPOS>ATOM
      1 C1           0.0000     0.0000     0.0000 ca         1 2DL       0.109100
      2 C2           1.3940     0.0000     0.0000 ca         1 2DL       0.116100
      3 C3           2.0840     0.0000     1.1970 ca         1 2DL      -0.137000
      4 C4           1.3810     0.0010     2.4050 ca         1 2DL      -0.122600
      5 C5          -0.0150     0.0010     2.3970 ca         1 2DL      -0.143000
      6 C6          -0.6980     0.0010     1.1990 ca         1 2DL      -0.126000
      7 O7          -0.6770     0.0050    -1.1770 oh         1 2DL      -0.481100
      8 C9           3.3360    -1.8410     6.1110 c3         1 2DL      -0.021600
      9 C10          2.3470    -0.6770     6.0150 c3         1 2DL       0.031500
     10 C12          0.4710    -1.5710     4.5600 c3         1 2DL       0.031500
     11 C13         -0.7420    -0.8710     5.1770 c3         1 2DL      -0.021600
     12 C14          2.1130     0.0010     3.6870 c          1 2DL       0.610700
     13 O15          3.1290     0.6600     3.8070 o          1 2DL      -0.646100
     14 O16          2.0750    -0.0010    -1.1780 os         1 2DL      -0.292900
     15 N3           1.6570    -0.7280     4.7240 n          1 2DL      -0.145800
     16 C15          3.5020    -0.0010    -1.1020 c3         1 2DL       0.238700
     17 H6          -1.7810     0.0010     1.1940 ha         1 2DL       0.114000
     18 H7          -1.0960    -0.8310    -1.3020 ho         1 2DL       0.399000
     19 H3           3.1680    -0.0000     1.1990 ha         1 2DL       0.139000
     20 H5          -0.5620     0.0020     3.3320 ha         1 2DL       0.140000
     21 H91C         2.8140    -2.7320     6.4400 hc         1 2DL       0.011367
     22 H92C         3.7770    -2.0200     5.1380 hc         1 2DL       0.011367
     23 H93C         4.1150    -1.5960     6.8220 hc         1 2DL       0.011367
     24 H101         2.8840     0.2600     6.1020 h1         1 2DL       0.035200
     25 H102         1.6210    -0.7530     6.8160 h1         1 2DL       0.035200
     26 H121         0.6170    -2.5310     5.0410 h1         1 2DL       0.035200
     27 H122         0.3010    -1.7200     3.5010 h1         1 2DL       0.035200
     28 H131        -1.6220    -1.0800     4.5800 hc         1 2DL       0.011367
     29 H132        -0.5680     0.1980     5.2020 hc         1 2DL       0.011367
     30 H133        -0.8950    -1.2360     6.1860 hc         1 2DL       0.011367
     31 H151         3.8360    -0.8860    -0.5740 h1         1 2DL       0.000033
     32 H152         3.9160     0.0010    -2.1030 h1         1 2DL       0.000033
     33 H153         3.8350     0.8830    -0.5720 h1         1 2DL       0.000033
@<TRIPOS>BOND
     1     1     2 ar  
     2     1     6 ar  
     3     1     7 1   
     4     2     3 ar  
     5     2    14 1   
     6     3     4 ar  
     7     3    19 1   
     8     4     5 ar  
     9     4    12 1   
    10     5     6 ar  
    11     5    20 1   
    12     6    17 1   
    13     7    18 1   
    14     8     9 1   
    15     8    21 1   
    16     8    22 1   
    17     8    23 1   
    18     9    15 1   
    19     9    24 1   
    20     9    25 1   
    21    10    11 1   
    22    10    15 1   
    23    10    26 1   
    24    10    27 1   
    25    11    28 1   
    26    11    29 1   
    27    11    30 1   
    28    12    13 2   
    29    12    15 1   
    30    14    16 1   
    31    16    31 1   
    32    16    32 1   
    33    16    33 1   
@<TRIPOS>SUBSTRUCTURE
     1 2DL         1 TEMP              0 ****  ****    0 ROOT
