@<TRIPOS>MOLECULE
molecule
   44    46     1     0     0
SMALL
bcc


@<TRIPOS>ATOM
      1 OXT          0.0000     0.0000     0.0000 o          1 2DN      -0.822800
      2 C            1.3420     0.0000     0.0000 c          1 2DN       0.880600
      3 O            1.9470     0.0000     1.0460 o          1 2DN      -0.822800
      4 CA           2.0950    -0.0010    -1.3050 c3         1 2DN      -0.089700
      5 N            3.5360    -0.0010    -1.0390 na         1 2DN       0.043600
      6 CBB          4.3100    -1.1180    -0.8200 ca         1 2DN      -0.036200
      7 CAJ          4.0240    -2.4800    -0.7810 ca         1 2DN      -0.071000
      8 CAI          5.0290    -3.3870    -0.5340 ca         1 2DN      -0.206000
      9 CAW          6.3360    -2.9580    -0.3210 ca         1 2DN       0.091100
     10 OAR          7.3170    -3.8690    -0.0780 os         1 2DN      -0.343900
     11 CAA          6.9330    -5.2450    -0.0570 c3         1 2DN       0.134700
     12 CAK          6.6430    -1.6140    -0.3550 ca         1 2DN      -0.127000
     13 CBA          5.6300    -0.6780    -0.6050 ca         1 2DN      -0.083800
     14 CAL          5.6160     0.7350    -0.7040 cc         1 2DN      -0.195200
     15 CAY          4.3410     1.1180    -0.9710 cd         1 2DN      -0.100300
     16 CAV          3.8880     2.5060    -1.1500 c          1 2DN       0.714300
     17 OAE          2.7040     2.7470    -1.2820 o          1 2DN      -0.529100
     18 NAQ          4.7870     3.5110    -1.1680 ns         1 2DN      -0.643300
     19 SBD          4.2710     5.0820    -1.2440 sy         1 2DN       1.376500
     20 OAF          5.4390     5.8910    -1.2140 o          1 2DN      -0.614300
     21 OAG          3.3130     5.1400    -2.2920 o          1 2DN      -0.614300
     22 CAZ          3.3950     5.4160     0.2480 cd         1 2DN       0.175300
     23 SAS          2.6320     6.9450     0.6870 ss         1 2DN      -0.244800
     24 NAO          3.1910     4.5810     1.2170 nc         1 2DN      -0.163000
     25 NAN          2.5380     5.0140     2.2070 nc         1 2DN      -0.327000
     26 CAX          2.1280     6.2460     2.1670 cd         1 2DN       0.554300
     27 NAP          1.3990     6.8900     3.1610 ns         1 2DN      -0.533400
     28 CAT          1.0600     6.2270     4.2850 c          1 2DN       0.637100
     29 OAC          1.3900     5.0690     4.4290 o          1 2DN      -0.491100
     30 CAB          0.2700     6.9250     5.3610 c3         1 2DN      -0.167100
     31 H2           1.8330     0.8830    -1.8740 h1         1 2DN       0.066700
     32 H3           1.8320    -0.8860    -1.8730 h1         1 2DN       0.066700
     33 H4           3.0100    -2.8250    -0.9460 ha         1 2DN       0.141000
     34 H5           4.8000    -4.4460    -0.5050 ha         1 2DN       0.123000
     35 H6           6.5130    -5.5180    -1.0180 h1         1 2DN       0.031700
     36 H7           7.8020    -5.8590     0.1450 h1         1 2DN       0.031700
     37 H8           6.1920    -5.4010     0.7180 h1         1 2DN       0.031700
     38 H9           7.6610    -1.2830    -0.1880 ha         1 2DN       0.128000
     39 H10          6.4710     1.3910    -0.5920 ha         1 2DN       0.130000
     40 H11          5.7670     3.3060    -1.1670 hn         1 2DN       0.350500
     41 H12          1.1380     7.8490     3.0490 hn         1 2DN       0.331500
     42 H13         -0.6760     7.2610     4.9540 hc         1 2DN       0.062700
     43 H14          0.8300     7.7770     5.7260 hc         1 2DN       0.062700
     44 H15          0.0870     6.2370     6.1780 hc         1 2DN       0.062700
@<TRIPOS>BOND
     1    20    19 2   
     2    30    28 1   
     3    29    28 2   
     4    28    27 1   
     5    27    26 1   
     6    25    26 2   
     7    25    24 1   
     8    26    23 1   
     9    24    22 2   
    10    23    22 1   
    11    22    19 1   
    12    19    21 2   
    13    19    18 1   
    14    18    16 1   
    15    16    17 2   
    16    16    15 1   
    17    15    14 2   
    18    15     5 1   
    19    14    13 1   
    20     3     2 1   
    21     2     1 1   
    22     2     4 1   
    23     5     4 1   
    24     5     6 1   
    25    13    12 ar  
    26    13     6 ar  
    27    12     9 ar  
    28     6     7 ar  
    29     9    10 1   
    30     9     8 ar  
    31     7     8 ar  
    32    11    10 1   
    33     4    31 1   
    34     4    32 1   
    35     7    33 1   
    36     8    34 1   
    37    11    35 1   
    38    11    36 1   
    39    11    37 1   
    40    12    38 1   
    41    14    39 1   
    42    18    40 1   
    43    27    41 1   
    44    30    42 1   
    45    30    43 1   
    46    30    44 1   
@<TRIPOS>SUBSTRUCTURE
     1 2DN         1 TEMP              0 ****  ****    0 ROOT
