@<TRIPOS>MOLECULE
2DQ
   46    48     1     0     0
SMALL
bcc


@<TRIPOS>ATOM
      1 OXT          0.0000     0.0000     0.0000 o          1 2DQ      -0.875800
      2 C            1.3420     0.0000     0.0000 c          1 2DQ       0.977600
      3 O            1.9470     0.0000     1.0460 o          1 2DQ      -0.875800
      4 CA           2.0960     0.0000    -1.3060 c3         1 2DQ      -0.213700
      5 N            3.5360    -0.0000    -1.0370 na         1 2DQ       0.580600
      6 CBA          4.3420     1.1150    -0.9820 ca         1 2DQ      -0.247200
      7 CAM          4.0940     2.4750    -1.1440 ca         1 2DQ      -0.024000
      8 CAL          5.1230     3.3810    -1.0310 ca         1 2DQ      -0.207000
      9 CAW          6.4190     2.9510    -0.7540 ca         1 2DQ       0.101100
     10 OAS          7.4240     3.8610    -0.6460 os         1 2DQ      -0.319900
     11 CAB          7.0790     5.2350    -0.8270 c3         1 2DQ       0.244700
     12 CAN          6.6880     1.6090    -0.5890 ca         1 2DQ      -0.107000
     13 CAZ          5.6490     0.6750    -0.7020 ca         1 2DQ      -0.074800
     14 CAO          5.5970    -0.7360    -0.5920 cc         1 2DQ      -0.184200
     15 CAY          4.3090    -1.1190    -0.7930 cd         1 2DQ      -0.302300
     16 CAU          3.8160    -2.5040    -0.7600 c          1 2DQ       0.702300
     17 OAD          2.6580    -2.7450    -1.0430 o          1 2DQ      -0.596100
     18 NAQ          4.6480    -3.5070    -0.4140 ns         1 2DQ      -0.298300
     19 SBC          4.1300    -5.0780    -0.4970 sy         1 2DQ       1.042900
     20 OAE          5.2330    -5.8840    -0.1080 o          1 2DQ      -0.578300
     21 OAF          2.8690    -5.1200     0.1540 o          1 2DQ      -0.578300
     22 CAX          3.8260    -5.4370    -2.1960 ca         1 2DQ      -0.199500
     23 CAJ          2.5760    -5.2060    -2.7360 ca         1 2DQ       0.055500
     24 CAH          2.3340    -5.4870    -4.0670 ca         1 2DQ      -0.216000
     25 CAV          3.3490    -6.0010    -4.8610 ca         1 2DQ       0.191100
     26 OAR          3.1150    -6.2780    -6.1710 os         1 2DQ      -0.308900
     27 CAA          4.2060    -6.8060    -6.9280 c3         1 2DQ       0.245700
     28 CAI          4.6040    -6.2320    -4.3160 ca         1 2DQ      -0.216000
     29 CAK          4.8410    -5.9450    -2.9860 ca         1 2DQ       0.055500
     30 H2           1.8340     0.8850    -1.8740 h1         1 2DQ       0.046700
     31 H3           1.8340    -0.8840    -1.8740 h1         1 2DQ       0.046700
     32 H4           3.0900     2.8200    -1.3600 ha         1 2DQ       0.107000
     33 H5           4.9240     4.4390    -1.1580 ha         1 2DQ       0.108000
     34 H6           7.9650     5.8480    -0.7150 h1         1 2DQ      -0.010300
     35 H7           6.6650     5.3760    -1.8190 h1         1 2DQ      -0.010300
     36 H8           6.3440     5.5240    -0.0850 h1         1 2DQ      -0.010300
     37 H9           7.6970     1.2780    -0.3730 ha         1 2DQ       0.102000
     38 H10          6.4320    -1.3910    -0.3790 ha         1 2DQ       0.113000
     39 H11          5.5650    -3.3000    -0.0700 hn         1 2DQ       0.235500
     40 H12          1.7840    -4.8040    -2.1160 ha         1 2DQ       0.135000
     41 H13          1.3540    -5.3060    -4.4900 ha         1 2DQ       0.120500
     42 H14          5.0260    -6.0970    -6.9230 h1         1 2DQ      -0.004300
     43 H15          3.8870    -6.9810    -7.9480 h1         1 2DQ      -0.004300
     44 H16          4.5340    -7.7390    -6.4870 h1         1 2DQ      -0.004300
     45 H17          5.3980    -6.6320    -4.9350 ha         1 2DQ       0.120500
     46 H18          5.8210    -6.1250    -2.5590 ha         1 2DQ       0.135000
@<TRIPOS>BOND
     1     1     2 1   
     2     2     3 1   
     3     2     4 1   
     4     4     5 1   
     5     4    30 1   
     6     4    31 1   
     7     5     6 1   
     8     5    15 1   
     9     6     7 ar  
    10     6    13 ar  
    11     7     8 ar  
    12     7    32 1   
    13     8     9 ar  
    14     8    33 1   
    15     9    10 1   
    16     9    12 ar  
    17    10    11 1   
    18    11    34 1   
    19    11    35 1   
    20    11    36 1   
    21    12    13 ar  
    22    12    37 1   
    23    13    14 1   
    24    14    15 2   
    25    14    38 1   
    26    15    16 1   
    27    16    17 2   
    28    16    18 1   
    29    18    19 1   
    30    18    39 1   
    31    19    20 2   
    32    19    21 2   
    33    19    22 1   
    34    22    23 ar  
    35    22    29 ar  
    36    23    24 ar  
    37    23    40 1   
    38    24    25 ar  
    39    24    41 1   
    40    25    26 1   
    41    25    28 ar  
    42    26    27 1   
    43    27    42 1   
    44    27    43 1   
    45    27    44 1   
    46    28    29 ar  
    47    28    45 1   
    48    29    46 1   
@<TRIPOS>SUBSTRUCTURE
     1 2DQ         1 TEMP              0 ****  ****    0 ROOT
