@<TRIPOS>MOLECULE
molecule
   46    48     1     0     0
SMALL
bcc


@<TRIPOS>ATOM
      1 OXT          0.0000     0.0000     0.0000 o          1 2DQ      -0.824300
      2 C            1.3420     0.0000     0.0000 c          1 2DQ       0.882600
      3 O            1.9470     0.0000     1.0460 o          1 2DQ      -0.824300
      4 CA           2.0960     0.0000    -1.3060 c3         1 2DQ      -0.086700
      5 N            3.5360    -0.0000    -1.0370 na         1 2DQ       0.040600
      6 CBA          4.3420     1.1150    -0.9820 ca         1 2DQ      -0.043200
      7 CAM          4.0940     2.4750    -1.1440 ca         1 2DQ      -0.077000
      8 CAL          5.1230     3.3810    -1.0310 ca         1 2DQ      -0.205000
      9 CAW          6.4190     2.9510    -0.7540 ca         1 2DQ       0.092100
     10 OAS          7.4240     3.8610    -0.6460 os         1 2DQ      -0.342900
     11 CAB          7.0790     5.2350    -0.8270 c3         1 2DQ       0.134700
     12 CAN          6.6880     1.6090    -0.5890 ca         1 2DQ      -0.126000
     13 CAZ          5.6490     0.6750    -0.7020 ca         1 2DQ      -0.082800
     14 CAO          5.5970    -0.7360    -0.5920 cc         1 2DQ      -0.198200
     15 CAY          4.3090    -1.1190    -0.7930 cd         1 2DQ      -0.096300
     16 CAU          3.8160    -2.5040    -0.7600 c          1 2DQ       0.719300
     17 OAD          2.6580    -2.7450    -1.0430 o          1 2DQ      -0.549100
     18 NAQ          4.6480    -3.5070    -0.4140 ns         1 2DQ      -0.652300
     19 SBC          4.1300    -5.0780    -0.4970 sy         1 2DQ       1.423900
     20 OAE          5.2330    -5.8840    -0.1080 o          1 2DQ      -0.623800
     21 OAF          2.8690    -5.1200     0.1540 o          1 2DQ      -0.623800
     22 CAX          3.8260    -5.4370    -2.1960 ca         1 2DQ      -0.349500
     23 CAJ          2.5760    -5.2060    -2.7360 ca         1 2DQ       0.018500
     24 CAH          2.3340    -5.4870    -4.0670 ca         1 2DQ      -0.219500
     25 CAV          3.3490    -6.0010    -4.8610 ca         1 2DQ       0.184100
     26 OAR          3.1150    -6.2780    -6.1710 os         1 2DQ      -0.327900
     27 CAA          4.2060    -6.8060    -6.9280 c3         1 2DQ       0.128700
     28 CAI          4.6040    -6.2320    -4.3160 ca         1 2DQ      -0.219500
     29 CAK          4.8410    -5.9450    -2.9860 ca         1 2DQ       0.018500
     30 H2           1.8340     0.8850    -1.8740 h1         1 2DQ       0.065200
     31 H3           1.8340    -0.8840    -1.8740 h1         1 2DQ       0.065200
     32 H4           3.0900     2.8200    -1.3600 ha         1 2DQ       0.138000
     33 H5           4.9240     4.4390    -1.1580 ha         1 2DQ       0.124000
     34 H6           7.9650     5.8480    -0.7150 h1         1 2DQ       0.031700
     35 H7           6.6650     5.3760    -1.8190 h1         1 2DQ       0.031700
     36 H8           6.3440     5.5240    -0.0850 h1         1 2DQ       0.031700
     37 H9           7.6970     1.2780    -0.3730 ha         1 2DQ       0.129000
     38 H10          6.4320    -1.3910    -0.3790 ha         1 2DQ       0.131000
     39 H11          5.5650    -3.3000    -0.0700 hn         1 2DQ       0.347500
     40 H12          1.7840    -4.8040    -2.1160 ha         1 2DQ       0.165500
     41 H13          1.3540    -5.3060    -4.4900 ha         1 2DQ       0.141500
     42 H14          5.0260    -6.0970    -6.9230 h1         1 2DQ       0.040367
     43 H15          3.8870    -6.9810    -7.9480 h1         1 2DQ       0.040367
     44 H16          4.5340    -7.7390    -6.4870 h1         1 2DQ       0.040367
     45 H17          5.3980    -6.6320    -4.9350 ha         1 2DQ       0.141500
     46 H18          5.8210    -6.1250    -2.5590 ha         1 2DQ       0.165500
@<TRIPOS>BOND
     1    10    11 1
     2    10     9 1
     3     8     9 ar
     4     8     7 ar
     5     9    12 ar
     6     7     6 ar
     7    12    13 ar
     8     6    13 ar
     9     6     5 1
    10    13    14 1
    11     4     5 1
    12     4     2 1
    13     5    15 1
    14     2     3 1
    15     2     1 1
    16    14    15 2
    17    15    16 1
    18    16    17 2
    19    16    18 1
    20    18    19 1
    21    19    21 2
    22    19    20 2
    23    19    22 1
    24    23    22 ar
    25    23    24 ar
    26    22    29 ar
    27    24    25 ar
    28    29    28 ar
    29    25    28 ar
    30    25    26 1
    31    26    27 1
    32     4    30 1
    33     4    31 1
    34     7    32 1
    35     8    33 1
    36    11    34 1
    37    11    35 1
    38    11    36 1
    39    12    37 1
    40    14    38 1
    41    18    39 1
    42    23    40 1
    43    24    41 1
    44    27    42 1
    45    27    43 1
    46    27    44 1
    47    28    45 1
    48    29    46 1
@<TRIPOS>SUBSTRUCTURE
     1 2DQ         1 TEMP              0 ****  ****    0 ROOT
