@<TRIPOS>MOLECULE
molecule
   19    19     1     0     0
SMALL
bcc


@<TRIPOS>ATOM
      1 C2           0.0000     0.0000     0.0000 c3         1 2DR      -0.123400
      2 C3           1.5490     0.0000     0.0000 c3         1 2DR       0.108100
      3 C4           1.9270     0.0000     1.4930 c3         1 2DR       0.139100
      4 C5           2.7820     1.2280     1.8130 c3         1 2DR       0.143400
      5 O1          -1.6190    -0.1070     1.8370 oh         1 2DR      -0.586800
      6 O3           2.0480    -1.1740    -0.6430 oh         1 2DR      -0.598800
      7 O4           0.7030     0.0490     2.2450 os         1 2DR      -0.416600
      8 O5           3.2260     1.1600     3.1690 oh         1 2DR      -0.595800
      9 C1          -0.3230    -0.5400     1.4170 c3         1 2DR       0.333900
     10 H21C        -0.3840    -0.6670    -0.7620 hc         1 2DR       0.074200
     11 H22C        -0.3840     1.0050    -0.1250 hc         1 2DR       0.074200
     12 H3           1.9250     0.8930    -0.4840 h1         1 2DR       0.045700
     13 H1          -0.2510    -1.6210     1.4360 h2         1 2DR       0.046700
     14 H4           2.4690    -0.9060     1.7340 h1         1 2DR       0.079700
     15 HA           2.4520    -0.9370    -1.4610 ho         1 2DR       0.407000
     16 H51C         3.6410     1.2520     1.1530 h1         1 2DR       0.027200
     17 H52C         2.1930     2.1260     1.6700 h1         1 2DR       0.027200
     18 H5           3.7930     1.8910     3.3510 ho         1 2DR       0.402000
     19 HB          -1.9620    -0.7120     2.4730 ho         1 2DR       0.412000
@<TRIPOS>BOND
     1     1     2 1   
     2     1     9 1   
     3     2     3 1   
     4     2     6 1   
     5     3     4 1   
     6     3     7 1   
     7     4     8 1   
     8     5     9 1   
     9     7     9 1   
    10     1    10 1   
    11     1    11 1   
    12     2    12 1   
    13     9    13 1   
    14     3    14 1   
    15     6    15 1   
    16     4    16 1   
    17     4    17 1   
    18     8    18 1   
    19     5    19 1   
@<TRIPOS>SUBSTRUCTURE
     1 2DR         1 TEMP              0 ****  ****    0 ROOT
