@<TRIPOS>MOLECULE
2DR
   19    19     1     0     0
SMALL
bcc


@<TRIPOS>ATOM
      1 C2          0.1150   -0.3460   -0.0480 c3        1 2DR     -0.137400
      2 C3          1.6150   -0.0240   -0.0970 c3        1 2DR      0.122100
      3 C4          2.1010   -0.0650    1.3670 c3        1 2DR      0.103100
      4 C5          2.5860    1.3040    1.8440 c3        1 2DR      0.118400
      5 O1         -0.9180    0.6650    1.8580 oh        1 2DR     -0.623800
      6 O3          2.3500   -1.0060   -0.8050 oh        1 2DR     -0.589800
      7 O4          0.9950   -0.4710    2.1880 os        1 2DR     -0.460600
      8 O5          3.0740    1.2400    3.1660 oh        1 2DR     -0.594800
      9 C1         -0.2170   -0.4820    1.4400 c3        1 2DR      0.336900
     10 H21C       -0.4910    0.4720   -0.5060 hc        1 2DR      0.076700
     11 H22C       -0.1030   -1.3040   -0.5790 hc        1 2DR      0.076700
     12 H3          1.7960    0.9860   -0.5540 h1        1 2DR      0.052700
     13 H1         -0.7660   -1.4230    1.7120 h2        1 2DR      0.071700
     14 H4          2.8970   -0.8450    1.5140 h1        1 2DR      0.101700
     15 HA          2.0490   -0.9740   -1.7210 ho        1 2DR      0.406000
     16 H51C        1.7480    2.0500    1.7780 h1        1 2DR      0.054200
     17 H52C        3.4580    1.6440    1.2250 h1        1 2DR      0.054200
     18 H5          2.3810    0.8350    3.7050 ho        1 2DR      0.411000
     19 HB         -0.8970    0.6820    2.8240 ho        1 2DR      0.421000
@<TRIPOS>BOND
     1    1    2 1   
     2    1    9 1   
     3    1   10 1   
     4    1   11 1   
     5    2    3 1   
     6    2    6 1   
     7    2   12 1   
     8    3    4 1   
     9    3    7 1   
    10    3   14 1   
    11    4    8 1   
    12    4   16 1   
    13    4   17 1   
    14    5    9 1   
    15    5   19 1   
    16    6   15 1   
    17    7    9 1   
    18    8   18 1   
    19    9   13 1   
@<TRIPOS>SUBSTRUCTURE
     1 2DR         1 TEMP              0 ****  ****    0 ROOT
