@<TRIPOS>MOLECULE
molecule
   52    53     1     0     0
SMALL
bcc


@<TRIPOS>ATOM
      1 C1           0.0000     0.0000     0.0000 ca         1 2DS       0.165100
      2 N1          -2.8330     0.0020     2.4020 ns         1 2DS      -0.563900
      3 O1          -0.6820     0.0060    -1.1740 oh         1 2DS      -0.470100
      4 C3         -11.5750    -4.4680     3.2730 ca         1 2DS       0.142100
      5 N3          -8.5710    -2.2070     4.2540 ns         1 2DS      -0.538900
      6 O3         -12.3750    -4.2860     4.3540 oh         1 2DS      -0.481100
      7 C4           1.3910     0.0000     0.0000 ca         1 2DS       0.033100
      8 O4           2.0710     0.0020    -1.1770 oh         1 2DS      -0.518100
      9 C6         -12.0430    -5.3050     2.2630 ca         1 2DS       0.036100
     10 O6         -13.2580    -5.9020     2.3840 oh         1 2DS      -0.522100
     11 C7           2.0830     0.0000     1.2000 ca         1 2DS      -0.146000
     12 O7          -2.7860     0.0100     0.1810 o          1 2DS      -0.598100
     13 C9         -11.2730    -5.5220     1.1330 ca         1 2DS      -0.180000
     14 O9         -10.4200    -2.5730     5.4270 o          1 2DS      -0.570100
     15 C10          1.3970    -0.0020     2.4020 ca         1 2DS      -0.141000
     16 C12        -10.0370    -4.9100     1.0000 ca         1 2DS      -0.166000
     17 O12         -9.3320     0.3000     4.1550 o          1 2DS      -0.829300
     18 C13          0.0190    -0.0030     2.4190 ca         1 2DS      -0.093000
     19 O14         -8.2270     1.0690     5.9070 o          1 2DS      -0.829300
     20 C15         -9.5610    -4.0790     1.9900 ca         1 2DS      -0.109000
     21 C16         -0.6930    -0.0020     1.2160 ca         1 2DS      -0.146600
     22 C18        -10.3290    -3.8460     3.1350 ca         1 2DS      -0.102600
     23 C19         -2.1690     0.0030     1.2290 c          1 2DS       0.672700
     24 C21         -9.7750    -2.7890     4.4200 c          1 2DS       0.686700
     25 C22         -4.2980     0.0080     2.4140 c3         1 2DS       0.078700
     26 C24         -8.0400    -1.3130     5.2860 c3         1 2DS       0.004700
     27 C25         -4.7910    -0.5950     3.7040 c          1 2DS       0.643100
     28 C27         -8.5810     0.0770     5.0740 c          1 2DS       0.888600
     29 C30         -6.5130    -1.2860     5.2010 c3         1 2DS       0.157400
     30 HN1         -2.3260    -0.0210     3.2640 hn         1 2DS       0.338500
     31 HO1         -0.3550     0.6980    -1.7240 ho         1 2DS       0.427000
     32 HN3         -8.0440    -2.3770     3.4200 hn         1 2DS       0.307500
     33 HO3        -13.2380    -4.0370     4.0680 ho         1 2DS       0.427000
     34 HO4          2.6800    -0.7170    -1.1900 ho         1 2DS       0.423000
     35 HO6        -13.1570    -6.8370     2.3110 ho         1 2DS       0.416000
     36 H7           3.1670     0.0010     1.1970 ha         1 2DS       0.133000
     37 H10          1.9470    -0.0020     3.3360 ha         1 2DS       0.135000
     38 H13         -0.5120    -0.0050     3.3630 ha         1 2DS       0.148000
     39 H15         -8.5860    -3.8340     1.5860 ha         1 2DS       0.144000
     40 C20         -4.8030     1.4480     2.2980 c3         1 2DS       0.128400
     41 H22         -4.6690    -0.5730     1.5790 h1         1 2DS       0.103700
     42 H24         -8.3400    -1.6720     6.2630 h1         1 2DS       0.089700
     43 H30         -6.1160    -0.6970     6.0190 h1         1 2DS       0.051700
     44 H30A        -6.1290    -2.2970     5.2650 h1         1 2DS       0.051700
     45 O11         -4.4120     2.1850     3.4580 oh         1 2DS      -0.605800
     46 H18         -5.8830     1.4460     2.2180 h1         1 2DS       0.049200
     47 H19         -4.3760     1.9100     1.4160 h1         1 2DS       0.049200
     48 H20         -4.5890     3.1020     3.3230 ho         1 2DS       0.407000
     49 O10         -4.0010    -0.9890     4.5280 o          1 2DS      -0.577000
     50 O15         -6.1090    -0.6940     3.9380 os         1 2DS      -0.395900
     51 H9         -11.5790    -6.1350     0.2930 ha         1 2DS       0.123000
     52 H12         -9.5010    -5.1360     0.0860 ha         1 2DS       0.123000
@<TRIPOS>BOND
     1     1    21 ar
     2     2    25 1
     3     2    30 1
     4     3     1 1
     5     3    31 1
     6     4     6 1
     7     4    22 ar
     8     5    26 1
     9     5    32 1
    10     6    33 1
    11     7     1 ar
    12     7    11 ar
    13     8     7 1
    14     8    34 1
    15     9     4 ar
    16    10     9 1
    17    10    35 1
    18    11    15 ar
    19    11    36 1
    20    13     9 ar
    21    13    16 ar
    22    13    51 1
    23    15    18 ar
    24    15    37 1
    25    49    27 2
    26    16    20 ar
    27    16    52 1
    28    18    38 1
    29    20    22 ar
    30    20    39 1
    31    21    18 ar
    32    21    23 1
    33    22    24 1
    34    23     2 1
    35    23    12 2
    36    24     5 1
    37    24    14 2
    38    25    27 1
    39    25    40 1
    40    25    41 1
    41    26    29 1
    42    26    28 1
    43    26    42 1
    44    27    50 1
    45    28    17 1
    46    28    19 1
    47    29    50 1
    48    29    43 1
    49    29    44 1
    50    40    45 1
    51    40    46 1
    52    40    47 1
    53    45    48 1
@<TRIPOS>SUBSTRUCTURE
     1 2DS         1 TEMP              0 ****  ****    0 ROOT
