@<TRIPOS>MOLECULE
2DU
   45    47     1     0     0
SMALL
bcc


@<TRIPOS>ATOM
      1 O            0.0000     0.0000     0.0000 o          1 2DU      -0.875300
      2 C            1.2080     0.0000     0.0000 c          1 2DU       0.977600
      3 OXT          1.8800     0.0000     1.1620 o          1 2DU      -0.875300
      4 CA           1.9610    -0.0070    -1.3060 c3         1 2DU      -0.212700
      5 N            1.0090    -0.0120    -2.4190 na         1 2DU       0.578600
      6 CAZ          0.5600    -1.1310    -3.0850 ca         1 2DU      -0.237200
      7 CAM          0.8270    -2.4900    -2.9460 ca         1 2DU      -0.041000
      8 CAL          0.2150    -3.4000    -3.7770 ca         1 2DU      -0.230000
      9 CAW         -0.6740    -2.9760    -4.7620 ca         1 2DU       0.131100
     10 OAS         -1.2690    -3.8890    -5.5750 os         1 2DU      -0.321900
     11 CAA         -0.9360    -5.2620    -5.3620 c3         1 2DU       0.248700
     12 CAN         -0.9540    -1.6350    -4.9170 ca         1 2DU      -0.111000
     13 CAY         -0.3380    -0.6960    -4.0790 ca         1 2DU      -0.074800
     14 CAO         -0.4090     0.7140    -3.9820 cc         1 2DU      -0.184200
     15 CAX          0.4080     1.1040    -2.9690 cd         1 2DU      -0.303300
     16 CAU          0.6230     2.4900    -2.5310 c          1 2DU       0.700300
     17 OAC          1.4480     2.7360    -1.6720 o          1 2DU      -0.597100
     18 NAR         -0.0960     3.4900    -3.0810 ns         1 2DU      -0.313300
     19 SBB          0.2330     5.0630    -2.6800 s6         1 2DU       0.954600
     20 OAD         -0.7190     5.8170    -3.4180 o          1 2DU      -0.567300
     21 OAE          0.2310     5.0700    -1.2590 o          1 2DU      -0.567300
     22 CAQ          1.9060     5.3530    -3.3160 c3         1 2DU       0.046700
     23 CAV          2.3210     6.7680    -3.0090 ca         1 2DU      -0.076300
     24 CAJ          2.9730     7.0550    -1.8240 ca         1 2DU      -0.083500
     25 CAH          3.3540     8.3530    -1.5420 ca         1 2DU      -0.102000
     26 CAG          3.0850     9.3650    -2.4450 ca         1 2DU      -0.106000
     27 CAI          2.4350     9.0770    -3.6310 ca         1 2DU      -0.102000
     28 CAK          2.0570     7.7780    -3.9150 ca         1 2DU      -0.083500
     29 H2           2.5840    -0.8920    -1.3590 h1         1 2DU       0.046200
     30 H3           2.5850     0.8770    -1.3680 h1         1 2DU       0.046200
     31 H4           1.5320    -2.9750    -2.2820 ha         1 2DU       0.105000
     32 H5           0.6020    -4.3520    -3.4320 ha         1 2DU       0.118000
     33 H6           0.1300    -5.4000    -5.4980 h1         1 2DU      -0.011300
     34 H7          -1.4730    -5.8780    -6.0720 h1         1 2DU      -0.011300
     35 H8          -1.2110    -5.5470    -4.3540 h1         1 2DU      -0.011300
     36 H9          -1.6450    -1.2850    -5.6740 ha         1 2DU       0.104000
     37 H10         -1.0140     1.3660    -4.6010 ha         1 2DU       0.113000
     38 H11         -0.8520     3.2790    -3.7020 hn         1 2DU       0.239500
     39 H12          1.9170     5.1980    -4.3890 h1         1 2DU       0.078200
     40 H13          2.5970     4.6640    -2.8450 h1         1 2DU       0.078200
     41 H14          3.1840     6.2630    -1.1160 ha         1 2DU       0.118500
     42 H15          3.8640     8.5780    -0.6130 ha         1 2DU       0.100500
     43 H16          3.3820    10.3820    -2.2230 ha         1 2DU       0.096000
     44 H17          2.2250     9.8690    -4.3400 ha         1 2DU       0.100500
     45 H18          1.5480     7.5530    -4.8440 ha         1 2DU       0.118500
@<TRIPOS>BOND
     1     1     2 1   
     2     2     3 1   
     3     2     4 1   
     4     4     5 1   
     5     4    29 1   
     6     4    30 1   
     7     5     6 1   
     8     5    15 1   
     9     6     7 ar  
    10     6    13 ar  
    11     7     8 ar  
    12     7    31 1   
    13     8     9 ar  
    14     8    32 1   
    15     9    10 1   
    16     9    12 ar  
    17    10    11 1   
    18    11    33 1   
    19    11    34 1   
    20    11    35 1   
    21    12    13 ar  
    22    12    36 1   
    23    13    14 1   
    24    14    15 2   
    25    14    37 1   
    26    15    16 1   
    27    16    17 2   
    28    16    18 1   
    29    18    19 1   
    30    18    38 1   
    31    19    20 2   
    32    19    21 2   
    33    19    22 1   
    34    22    23 1   
    35    22    39 1   
    36    22    40 1   
    37    23    24 ar  
    38    23    28 ar  
    39    24    25 ar  
    40    24    41 1   
    41    25    26 ar  
    42    25    42 1   
    43    26    27 ar  
    44    26    43 1   
    45    27    28 ar  
    46    27    44 1   
    47    28    45 1   
@<TRIPOS>SUBSTRUCTURE
     1 2DU         1 TEMP              0 ****  ****    0 ROOT
