@<TRIPOS>MOLECULE
molecule
   48    50     1     0     0
SMALL
bcc


@<TRIPOS>ATOM
      1 O            0.0000     0.0000     0.0000 o          1 2DV      -0.822800
      2 C            1.2080     0.0000     0.0000 c          1 2DV       0.882600
      3 OXT          1.8790     0.0000     1.1630 o          1 2DV      -0.822800
      4 CA           1.9620    -0.0070    -1.3050 c3         1 2DV      -0.086700
      5 N            1.0110    -0.0110    -2.4180 na         1 2DV       0.041600
      6 CBC          0.5620    -1.1300    -3.0840 ca         1 2DV      -0.043200
      7 CAO          0.8290    -2.4890    -2.9460 ca         1 2DV      -0.077000
      8 CAN          0.2170    -3.3980    -3.7780 ca         1 2DV      -0.204000
      9 CAY         -0.6710    -2.9730    -4.7630 ca         1 2DV       0.093100
     10 OAU         -1.2660    -3.8870    -5.5770 os         1 2DV      -0.342900
     11 CAA         -0.9320    -5.2600    -5.3640 c3         1 2DV       0.133700
     12 CAP         -0.9510    -1.6330    -4.9190 ca         1 2DV      -0.126000
     13 CBB         -0.3360    -0.6950    -4.0790 ca         1 2DV      -0.081800
     14 CAQ         -0.4060     0.7160    -3.9830 cc         1 2DV      -0.197200
     15 CBA          0.4110     1.1040    -2.9690 cd         1 2DV      -0.099300
     16 CAW          0.6250     2.4910    -2.5300 c          1 2DV       0.715300
     17 OAC          1.4510     2.7360    -1.6700 o          1 2DV      -0.552100
     18 NAT         -0.0920     3.4910    -3.0810 ns         1 2DV      -0.651300
     19 SBF          0.2360     5.0640    -2.6790 s6         1 2DV       1.325600
     20 OAD         -0.7150     5.8200    -3.4170 o          1 2DV      -0.603300
     21 OAE          0.2340     5.0700    -1.2580 o          1 2DV      -0.603300
     22 CAS          1.9100     5.3540    -3.3140 c3         1 2DV      -0.180300
     23 CAX          2.3260     6.7690    -3.0060 ca         1 2DV      -0.050300
     24 CAJ          2.0530     7.7810    -3.9070 ca         1 2DV      -0.115000
     25 CAL          2.4340     9.0790    -3.6240 ca         1 2DV      -0.081500
     26 CAZ          3.0890     9.3660    -2.4410 ca         1 2DV      -0.181300
     27 CBE          3.5050    10.7810    -2.1330 c3         1 2DV       0.673200
     28 FAH          4.6560    10.7650    -1.3390 f          1 2DV      -0.226300
     29 FAI          3.7720    11.4580    -3.3270 f          1 2DV      -0.226300
     30 FAG          2.4730    11.4320    -1.4470 f          1 2DV      -0.226300
     31 CAM          3.3600     8.3540    -1.5400 ca         1 2DV      -0.081500
     32 CAK          2.9760     7.0560    -1.8200 ca         1 2DV      -0.115000
     33 H2           2.5850     0.8770    -1.3660 h1         1 2DV       0.064700
     34 H3           2.5840    -0.8920    -1.3580 h1         1 2DV       0.064700
     35 H4           1.5180    -2.8300    -2.1830 ha         1 2DV       0.139000
     36 H5           0.4290    -4.4550    -3.6660 ha         1 2DV       0.124000
     37 H6           0.1330    -5.3980    -5.5010 h1         1 2DV       0.032367
     38 H7          -1.4700    -5.8770    -6.0730 h1         1 2DV       0.032367
     39 H8          -1.2070    -5.5460    -4.3560 h1         1 2DV       0.032367
     40 H9          -1.6420    -1.3060    -5.6860 ha         1 2DV       0.130000
     41 H10         -1.0100     1.3690    -4.6020 ha         1 2DV       0.131000
     42 H11         -0.8460     3.2800    -3.7050 hn         1 2DV       0.351500
     43 H12          1.9210     5.1990    -4.3860 h1         1 2DV       0.115200
     44 H13          2.5990     4.6640    -2.8430 h1         1 2DV       0.115200
     45 H14          1.5400     7.5570    -4.8350 ha         1 2DV       0.155000
     46 H15          2.2200     9.8720    -4.3300 ha         1 2DV       0.147000
     47 H16          3.8710     8.5780    -0.6110 ha         1 2DV       0.147000
     48 H17          3.1890     6.2630    -1.1130 ha         1 2DV       0.155000
@<TRIPOS>BOND
     1    10    11 1   
     2    10     9 1   
     3     8     9 ar  
     4     8     7 ar  
     5     9    12 ar  
     6     7     6 ar  
     7    12    13 ar  
     8     6    13 ar  
     9     6     5 1   
    10    13    14 1   
    11     5     4 1   
    12     5    15 1   
    13     4     2 1   
    14    14    15 2   
    15     2     1 1   
    16     2     3 1   
    17    15    16 1   
    18    16    17 2   
    19    16    18 1   
    20    18    19 1   
    21    19    20 2   
    22    19    21 2   
    23    19    22 1   
    24    22    23 1   
    25    23    32 ar  
    26    23    24 ar  
    27    32    31 ar  
    28    24    25 ar  
    29    31    26 ar  
    30    25    26 ar  
    31    26    27 1   
    32    27    30 1   
    33    27    28 1   
    34    27    29 1   
    35     4    33 1   
    36     4    34 1   
    37     7    35 1   
    38     8    36 1   
    39    11    37 1   
    40    11    38 1   
    41    11    39 1   
    42    12    40 1   
    43    14    41 1   
    44    18    42 1   
    45    22    43 1   
    46    22    44 1   
    47    24    45 1   
    48    25    46 1   
    49    31    47 1   
    50    32    48 1   
@<TRIPOS>SUBSTRUCTURE
     1 2DV         1 TEMP              0 ****  ****    0 ROOT
