@<TRIPOS>MOLECULE
2DW
   48    51     1     0     0
SMALL
bcc


@<TRIPOS>ATOM
      1 O            0.0000     0.0000     0.0000 o          1 2DW      -0.878800
      2 C            1.2080     0.0000     0.0000 c          1 2DW       0.974600
      3 OXT          1.8780     0.0000     1.1630 o          1 2DW      -0.878800
      4 CA           1.9630    -0.0060    -1.3040 c3         1 2DW      -0.216700
      5 N            1.0110    -0.0110    -2.4180 na         1 2DW       0.581600
      6 CBC          0.4280     1.1040    -2.9790 ca         1 2DW      -0.240200
      7 CAN          0.5290     2.4650    -2.7120 ca         1 2DW      -0.018000
      8 CAI         -0.1920     3.3700    -3.4580 ca         1 2DW      -0.207000
      9 CAW         -1.0290     2.9340    -4.4840 ca         1 2DW       0.103100
     10 OAT         -1.7350     3.8420    -5.2110 os         1 2DW      -0.320900
     11 CAA         -1.5690     5.2190    -4.8680 c3         1 2DW       0.244700
     12 CAO         -1.1440     1.5900    -4.7670 ca         1 2DW      -0.109000
     13 CBB         -0.4160     0.6590    -4.0160 ca         1 2DW      -0.075800
     14 CAQ         -0.3160    -0.7540    -4.0530 cc         1 2DW      -0.180200
     15 CAY          0.5560    -1.1330    -3.0820 cd         1 2DW      -0.314300
     16 CAV          0.9460    -2.5180    -2.7810 c          1 2DW       0.699300
     17 OAC          1.6580    -2.7550    -1.8230 o          1 2DW      -0.598100
     18 NAS          0.5140    -3.5260    -3.5650 ns         1 2DW      -0.298300
     19 SBE          0.8430    -5.0950    -3.1530 sy         1 2DW       1.040900
     20 OAD          0.2330    -5.9070    -4.1470 o          1 2DW      -0.589300
     21 OAE          2.2300    -5.1490    -2.8490 o          1 2DW      -0.589300
     22 CAX         -0.0090    -5.4280    -1.6460 ca         1 2DW      -0.170500
     23 CAP          0.6120    -5.1890    -0.4590 ca         1 2DW       0.088000
     24 CBA         -0.0660    -5.4490     0.7440 ca         1 2DW      -0.075000
     25 CAL          0.5410    -5.2140     1.9900 ca         1 2DW      -0.035000
     26 CAH         -0.1470    -5.4760     3.1350 ca         1 2DW      -0.121000
     27 CAG         -1.4470    -5.9740     3.0920 ca         1 2DW      -0.076000
     28 CAK         -2.0680    -6.2140     1.9040 ca         1 2DW      -0.118000
     29 CAZ         -1.3900    -5.9550     0.7010 ca         1 2DW       0.010000
     30 CAM         -1.9970    -6.1880    -0.5440 ca         1 2DW      -0.129000
     31 CAJ         -1.3090    -5.9260    -1.6890 ca         1 2DW      -0.019000
     32 H2           2.5860     0.8780    -1.3650 h1         1 2DW       0.051200
     33 H3           2.5850    -0.8910    -1.3580 h1         1 2DW       0.051200
     34 H4           1.1770     2.8140    -1.9160 ha         1 2DW       0.109000
     35 H5          -0.1090     4.4290    -3.2450 ha         1 2DW       0.109000
     36 H6          -1.8710     5.3740    -3.8390 h1         1 2DW      -0.010300
     37 H7          -2.1830     5.8300    -5.5200 h1         1 2DW      -0.010300
     38 H8          -0.5290     5.4980    -4.9860 h1         1 2DW      -0.010300
     39 H9          -1.7960     1.2550    -5.5650 ha         1 2DW       0.102000
     40 H10         -0.8350    -1.4130    -4.7380 ha         1 2DW       0.113000
     41 H11          0.0300    -3.3240    -4.4180 hn         1 2DW       0.234500
     42 H12          1.6590    -4.9110    -0.4410 ha         1 2DW       0.146000
     43 H13          1.5520    -4.8270     2.0380 ha         1 2DW       0.120000
     44 H14          0.3240    -5.2950     4.0940 ha         1 2DW       0.102000
     45 H15         -1.9730    -6.1740     4.0180 ha         1 2DW       0.092000
     46 H16         -3.0790    -6.6010     1.8870 ha         1 2DW       0.101000
     47 H17         -3.0080    -6.5750    -0.5930 ha         1 2DW       0.103000
     48 H18         -1.7800    -6.1080    -2.6480 ha         1 2DW       0.113000
@<TRIPOS>BOND
     1     1     2 1   
     2     2     3 1   
     3     2     4 1   
     4     4     5 1   
     5     4    32 1   
     6     4    33 1   
     7     5     6 1   
     8     5    15 1   
     9     6     7 ar  
    10     6    13 ar  
    11     7     8 ar  
    12     7    34 1   
    13     8     9 ar  
    14     8    35 1   
    15     9    10 1   
    16     9    12 ar  
    17    10    11 1   
    18    11    36 1   
    19    11    37 1   
    20    11    38 1   
    21    12    13 ar  
    22    12    39 1   
    23    13    14 1   
    24    14    15 2   
    25    14    40 1   
    26    15    16 1   
    27    16    17 2   
    28    16    18 1   
    29    18    19 1   
    30    18    41 1   
    31    19    20 2   
    32    19    21 2   
    33    19    22 1   
    34    22    23 ar  
    35    22    31 ar  
    36    23    24 ar  
    37    23    42 1   
    38    24    25 ar  
    39    24    29 ar  
    40    25    26 ar  
    41    25    43 1   
    42    26    27 ar  
    43    26    44 1   
    44    27    28 ar  
    45    27    45 1   
    46    28    29 ar  
    47    28    46 1   
    48    29    30 ar  
    49    30    31 ar  
    50    30    47 1   
    51    31    48 1   
@<TRIPOS>SUBSTRUCTURE
     1 2DW         1 TEMP              0 ****  ****    0 ROOT
