@<TRIPOS>MOLECULE
2DX
   84    88     1     0     0
SMALL
bcc


@<TRIPOS>ATOM
      1 C1           0.0000     0.0000     0.0000 c3         1 2DX      -0.003100
      2 C2           1.5300     0.0000     0.0000 c3         1 2DX      -0.028400
      3 C3           2.0390     0.0000     1.4420 c3         1 2DX       0.048500
      4 N5           1.6500     1.2550     2.1000 n7         1 2DX      -0.554200
      5 C6           1.5450     1.0770     3.5530 c3         1 2DX       0.168100
      6 C7           3.5410    -0.1230     1.4450 c          1 2DX       0.567100
      7 O8           4.2310     0.8740     1.4770 o          1 2DX      -0.625100
      8 N9           4.1180    -1.3410     1.4090 ns         1 2DX      -0.186900
      9 C10          5.5780    -1.4600     1.4120 c3         1 2DX      -0.056300
     10 C12          6.0910    -1.4210     2.8520 c3         1 2DX      -0.052700
     11 C13          7.6120    -1.5820     2.8560 c3         1 2DX      -0.054400
     12 C14          8.1250    -1.5420     4.2970 c3         1 2DX      -0.018900
     13 C15          7.7520    -0.2020     4.9350 c3         1 2DX      -0.028400
     14 C16          6.2310    -0.0410     4.9310 c3         1 2DX      -0.018900
     15 C17          5.7180    -0.0810     3.4900 c3         1 2DX      -0.054400
     16 C18          5.9760    -2.7660     0.7720 c          1 2DX       0.587100
     17 O19          5.2600    -3.7390     0.8840 o          1 2DX      -0.662100
     18 N20          7.1270    -2.8520     0.0770 n          1 2DX      -0.104800
     19 C21          8.0600    -1.7080     0.0380 c3         1 2DX       0.014000
     20 C22          8.3990    -1.4700    -1.4310 c3         1 2DX       0.101500
     21 C24          9.5130    -0.4380    -1.6400 c3         1 2DX      -0.017400
     22 C25         10.3080    -0.9770    -2.8560 c3         1 2DX      -0.023400
     23 C26          9.6230    -2.3210    -3.2190 c3         1 2DX       0.158800
     24 N27          8.9830    -2.7320    -1.9590 n3         1 2DX      -0.545600
     25 C28          7.9370    -3.7420    -2.0710 c3         1 2DX       0.153800
     26 C29          7.4650    -4.0870    -0.6430 c3         1 2DX      -0.048300
     27 C31          8.5640    -4.8100     0.0920 c          1 2DX       0.581100
     28 O32          9.0200    -4.3420     1.1140 o          1 2DX      -0.645100
     29 N33          9.0410    -5.9760    -0.3860 ns         1 2DX      -0.177900
     30 C34         10.1090    -6.6790     0.3280 c3         1 2DX       0.094000
     31 C35         10.8840    -7.5600    -0.6540 c3         1 2DX      -0.086400
     32 C36         11.7910    -8.5000     0.1530 c3         1 2DX       0.224400
     33 O37         10.9640    -9.3740     0.9210 os         1 2DX      -0.311900
     34 C38          9.9620    -8.8210     1.6530 ca         1 2DX       0.162100
     35 C39          9.3860    -9.5770     2.6680 ca         1 2DX      -0.145000
     36 C40          8.3630    -9.0520     3.4300 ca         1 2DX      -0.064000
     37 C41          7.9080    -7.7700     3.1870 ca         1 2DX      -0.135000
     38 C42          8.4800    -7.0140     2.1810 ca         1 2DX      -0.066000
     39 C43          9.5080    -7.5360     1.4140 ca         1 2DX      -0.202300
     40 H1          -0.3610    -0.5690     0.8480 hc         1 2DX       0.005033
     41 H2          -0.3610    -0.4500    -0.9170 hc         1 2DX       0.005033
     42 H3          -0.3610     1.0190     0.0690 hc         1 2DX       0.005033
     43 H4           1.8910    -0.8850    -0.5110 hc         1 2DX       0.026700
     44 H5           1.8910     0.8850    -0.5110 hc         1 2DX       0.026700
     45 H6           1.6070    -0.8370     1.9780 h1         1 2DX       0.019700
     46 H7           0.7700     1.5630     1.7370 hn         1 2DX       0.258800
     47 H9           0.5830     1.4410     3.8930 h1         1 2DX       0.001700
     48 H10          2.3350     1.6340     4.0430 h1         1 2DX       0.001700
     49 H11          1.6390     0.0260     3.7970 h1         1 2DX       0.001700
     50 H12          3.5490    -2.1620     1.3530 hn         1 2DX       0.194500
     51 H13          6.0080    -0.6380     0.8530 h1         1 2DX       0.069700
     52 H14          5.6430    -2.2260     3.4220 hc         1 2DX       0.042700
     53 H15          8.0610    -0.7730     2.2920 hc         1 2DX       0.035700
     54 H16          7.8750    -2.5320     2.4070 hc         1 2DX       0.035700
     55 H17          7.6730    -2.3480     4.8620 hc         1 2DX       0.013700
     56 H18          9.2020    -1.6530     4.2990 hc         1 2DX       0.013700
     57 H19          8.2010     0.6040     4.3680 hc         1 2DX       0.011700
     58 H20          8.1130    -0.1770     5.9560 hc         1 2DX       0.011700
     59 H21          5.9680     0.9090     5.3800 hc         1 2DX       0.013700
     60 H22          5.7820    -0.8490     5.4950 hc         1 2DX       0.013700
     61 H23          6.1710     0.7240     2.9240 hc         1 2DX       0.035700
     62 H24          4.6410     0.0310     3.4880 hc         1 2DX       0.035700
     63 H25          7.5830    -0.8280     0.4540 h1         1 2DX       0.063200
     64 H26          8.9600    -1.9460     0.5910 h1         1 2DX       0.063200
     65 H27          7.5130    -1.1960    -1.9900 h1         1 2DX       0.023700
     66 H28          9.0900     0.5330    -1.8660 hc         1 2DX       0.025200
     67 H29         10.1500    -0.3880    -0.7650 hc         1 2DX       0.025200
     68 H30         11.3430    -1.1450    -2.5830 hc         1 2DX       0.020200
     69 H31         10.2390    -0.2840    -3.6860 hc         1 2DX       0.020200
     70 H32          8.8790    -2.1710    -3.9920 h1         1 2DX       0.011700
     71 H33         10.3610    -3.0520    -3.5270 h1         1 2DX       0.011700
     72 H35          8.3340    -4.6290    -2.5490 h1         1 2DX       0.017700
     73 H36          7.1070    -3.3480    -2.6450 h1         1 2DX       0.017700
     74 H37          6.5870    -4.7190    -0.6990 h1         1 2DX       0.078700
     75 H38          8.6440    -6.3780    -1.2120 hn         1 2DX       0.175500
     76 H39         10.7850    -5.9590     0.7740 h1         1 2DX       0.065700
     77 H40         11.4900    -6.9380    -1.3010 hc         1 2DX       0.030200
     78 H41         10.1890    -8.1450    -1.2450 hc         1 2DX       0.030200
     79 H42         12.4000    -7.9090     0.8260 h1         1 2DX       0.018700
     80 H43         12.3860    -9.0900    -0.5330 h1         1 2DX       0.018700
     81 H44          9.7410   -10.5830     2.8600 ha         1 2DX       0.115000
     82 H45          7.9150    -9.6450     4.2190 ha         1 2DX       0.101000
     83 H46          7.1050    -7.3570     3.7850 ha         1 2DX       0.108000
     84 H47          8.1220    -6.0090     1.9920 ha         1 2DX       0.136000
@<TRIPOS>BOND
     1     1     2 1   
     2     1    40 1   
     3     1    41 1   
     4     1    42 1   
     5     2     3 1   
     6     2    43 1   
     7     2    44 1   
     8     3     4 1   
     9     3     6 1   
    10     3    45 1   
    11     4     5 1   
    12     4    46 1   
    13     5    47 1   
    14     5    48 1   
    15     5    49 1   
    16     6     7 2   
    17     6     8 1   
    18     8     9 1   
    19     8    50 1   
    20     9    10 1   
    21     9    16 1   
    22     9    51 1   
    23    10    11 1   
    24    10    15 1   
    25    10    52 1   
    26    11    12 1   
    27    11    53 1   
    28    11    54 1   
    29    12    13 1   
    30    12    55 1   
    31    12    56 1   
    32    13    14 1   
    33    13    57 1   
    34    13    58 1   
    35    14    15 1   
    36    14    59 1   
    37    14    60 1   
    38    15    61 1   
    39    15    62 1   
    40    16    17 2   
    41    16    18 1   
    42    18    19 1   
    43    18    26 1   
    44    19    20 1   
    45    19    63 1   
    46    19    64 1   
    47    20    21 1   
    48    20    24 1   
    49    20    65 1   
    50    21    22 1   
    51    21    66 1   
    52    21    67 1   
    53    22    23 1   
    54    22    68 1   
    55    22    69 1   
    56    23    24 1   
    57    23    70 1   
    58    23    71 1   
    59    24    25 1   
    60    25    26 1   
    61    25    72 1   
    62    25    73 1   
    63    26    27 1   
    64    26    74 1   
    65    27    28 2   
    66    27    29 1   
    67    29    30 1   
    68    29    75 1   
    69    30    31 1   
    70    30    39 1   
    71    30    76 1   
    72    31    32 1   
    73    31    77 1   
    74    31    78 1   
    75    32    33 1   
    76    32    79 1   
    77    32    80 1   
    78    33    34 1   
    79    34    35 ar  
    80    34    39 ar  
    81    35    36 ar  
    82    35    81 1   
    83    36    37 ar  
    84    36    82 1   
    85    37    38 ar  
    86    37    83 1   
    87    38    39 ar  
    88    38    84 1   
@<TRIPOS>SUBSTRUCTURE
     1 2DX         1 TEMP              0 ****  ****    0 ROOT
