@<TRIPOS>MOLECULE
molecule
   84    88     1     0     0
SMALL
bcc


@<TRIPOS>ATOM
      1 C1           0.0000     0.0000     0.0000 c3         1 2DX      -0.099100
      2 C2           1.5300     0.0000     0.0000 c3         1 2DX      -0.087400
      3 C3           2.0390     0.0000     1.4420 c3         1 2DX       0.099500
      4 N5           1.6500     1.2550     2.1000 n7         1 2DX      -0.794200
      5 C6           1.5450     1.0770     3.5530 c3         1 2DX       0.144100
      6 C7           3.5410    -0.1230     1.4450 c          1 2DX       0.658100
      7 O8           4.2310     0.8740     1.4770 o          1 2DX      -0.584100
      8 N9           4.1180    -1.3410     1.4090 ns         1 2DX      -0.579900
      9 C10          5.5780    -1.4600     1.4120 c3         1 2DX       0.051700
     10 C12          6.0910    -1.4210     2.8520 c3         1 2DX      -0.077700
     11 C13          7.6120    -1.5820     2.8560 c3         1 2DX      -0.082900
     12 C14          8.1250    -1.5420     4.2970 c3         1 2DX      -0.076900
     13 C15          7.7520    -0.2020     4.9350 c3         1 2DX      -0.082400
     14 C16          6.2310    -0.0410     4.9310 c3         1 2DX      -0.076900
     15 C17          5.7180    -0.0810     3.4900 c3         1 2DX      -0.082900
     16 C18          5.9760    -2.7660     0.7720 c          1 2DX       0.664100
     17 O19          5.2600    -3.7390     0.8840 o          1 2DX      -0.622100
     18 N20          7.1270    -2.8520     0.0770 n          1 2DX      -0.465800
     19 C21          8.0600    -1.7080     0.0380 c3         1 2DX       0.105000
     20 C22          8.3990    -1.4700    -1.4310 c3         1 2DX       0.128500
     21 C24          9.5130    -0.4380    -1.6400 c3         1 2DX      -0.075400
     22 C25         10.3080    -0.9770    -2.8560 c3         1 2DX      -0.081400
     23 C26          9.6230    -2.3210    -3.2190 c3         1 2DX       0.150800
     24 N27          8.9830    -2.7320    -1.9590 n3         1 2DX      -0.711600
     25 C28          7.9370    -3.7420    -2.0710 c3         1 2DX       0.153800
     26 C29          7.4650    -4.0870    -0.6430 c3         1 2DX       0.047700
     27 C31          8.5640    -4.8100     0.0920 c          1 2DX       0.664100
     28 O32          9.0200    -4.3420     1.1140 o          1 2DX      -0.603100
     29 N33          9.0410    -5.9760    -0.3860 ns         1 2DX      -0.574900
     30 C34         10.1090    -6.6790     0.3280 c3         1 2DX       0.174000
     31 C35         10.8840    -7.5600    -0.6540 c3         1 2DX      -0.138400
     32 C36         11.7910    -8.5000     0.1530 c3         1 2DX       0.149400
     33 O37         10.9640    -9.3740     0.9210 os         1 2DX      -0.334900
     34 C38          9.9620    -8.8210     1.6530 ca         1 2DX       0.147100
     35 C39          9.3860    -9.5770     2.6680 ca         1 2DX      -0.162000
     36 C40          8.3630    -9.0520     3.4300 ca         1 2DX      -0.095000
     37 C41          7.9080    -7.7700     3.1870 ca         1 2DX      -0.164000
     38 C42          8.4800    -7.0140     2.1810 ca         1 2DX      -0.076000
     39 C43          9.5080    -7.5360     1.4140 ca         1 2DX      -0.188300
     40 H1          -0.3610    -0.5690     0.8480 hc         1 2DX       0.037367
     41 H2          -0.3610    -0.4500    -0.9170 hc         1 2DX       0.037367
     42 H3          -0.3610     1.0190     0.0690 hc         1 2DX       0.037367
     43 H4           1.8910    -0.8850    -0.5110 hc         1 2DX       0.059200
     44 H5           1.8910     0.8850    -0.5110 hc         1 2DX       0.059200
     45 H6           1.6070    -0.8370     1.9780 h1         1 2DX       0.034700
     46 H7           0.7700     1.5630     1.7370 hn         1 2DX       0.360800
     47 H9           0.5830     1.4410     3.8930 h1         1 2DX       0.034033
     48 H10          2.3350     1.6340     4.0430 h1         1 2DX       0.034033
     49 H11          1.6390     0.0260     3.7970 h1         1 2DX       0.034033
     50 H12          3.5490    -2.1620     1.3530 hn         1 2DX       0.330500
     51 H13          6.0080    -0.6380     0.8530 h1         1 2DX       0.086700
     52 H14          5.6430    -2.2260     3.4220 hc         1 2DX       0.065700
     53 H15          8.0610    -0.7730     2.2920 hc         1 2DX       0.055450
     54 H16          7.8750    -2.5320     2.4070 hc         1 2DX       0.055450
     55 H17          7.6730    -2.3480     4.8620 hc         1 2DX       0.041700
     56 H18          9.2020    -1.6530     4.2990 hc         1 2DX       0.041700
     57 H19          8.2010     0.6040     4.3680 hc         1 2DX       0.038700
     58 H20          8.1130    -0.1770     5.9560 hc         1 2DX       0.038700
     59 H21          5.9680     0.9090     5.3800 hc         1 2DX       0.041700
     60 H22          5.7820    -0.8490     5.4950 hc         1 2DX       0.041700
     61 H23          6.1710     0.7240     2.9240 hc         1 2DX       0.055450
     62 H24          4.6410     0.0310     3.4880 hc         1 2DX       0.055450
     63 H25          7.5830    -0.8280     0.4540 h1         1 2DX       0.079200
     64 H26          8.9600    -1.9460     0.5910 h1         1 2DX       0.079200
     65 H27          7.5130    -1.1960    -1.9900 h1         1 2DX       0.042700
     66 H28          9.0900     0.5330    -1.8660 hc         1 2DX       0.054700
     67 H29         10.1500    -0.3880    -0.7650 hc         1 2DX       0.054700
     68 H30         11.3430    -1.1450    -2.5830 hc         1 2DX       0.051200
     69 H31         10.2390    -0.2840    -3.6860 hc         1 2DX       0.051200
     70 H32          8.8790    -2.1710    -3.9920 h1         1 2DX       0.041200
     71 H33         10.3610    -3.0520    -3.5270 h1         1 2DX       0.041200
     72 H35          8.3340    -4.6290    -2.5490 h1         1 2DX       0.045700
     73 H36          7.1070    -3.3480    -2.6450 h1         1 2DX       0.045700
     74 H37          6.5870    -4.7190    -0.6990 h1         1 2DX       0.104700
     75 H38          8.6440    -6.3780    -1.2120 hn         1 2DX       0.313500
     76 H39         10.7850    -5.9590     0.7740 h1         1 2DX       0.091700
     77 H40         11.4900    -6.9380    -1.3010 hc         1 2DX       0.059200
     78 H41         10.1890    -8.1450    -1.2450 hc         1 2DX       0.059200
     79 H42         12.4000    -7.9090     0.8260 h1         1 2DX       0.061700
     80 H43         12.3860    -9.0900    -0.5330 h1         1 2DX       0.061700
     81 H44          9.7410   -10.5830     2.8600 ha         1 2DX       0.141000
     82 H45          7.9150    -9.6450     4.2190 ha         1 2DX       0.131000
     83 H46          7.1050    -7.3570     3.7850 ha         1 2DX       0.134000
     84 H47          8.1220    -6.0090     1.9920 ha         1 2DX       0.157000
@<TRIPOS>BOND
     1    21    22 1   
     2    21    20 1   
     3    22    23 1   
     4     7     6 2   
     5     5     4 1   
     6    12    11 1   
     7    12    13 1   
     8    11    10 1   
     9    20    19 1   
    10    20    24 1   
    11     4     3 1   
    12    19    18 1   
    13     6     3 1   
    14     6     8 1   
    15    23    24 1   
    16    10     9 1   
    17    10    15 1   
    18     9     8 1   
    19     9    16 1   
    20     3     2 1   
    21    13    14 1   
    22    24    25 1   
    23     2     1 1   
    24    18    16 1   
    25    18    26 1   
    26    16    17 2   
    27    14    15 1   
    28    25    26 1   
    29    26    27 1   
    30    28    27 2   
    31    27    29 1   
    32    29    30 1   
    33    31    30 1   
    34    31    32 1   
    35    30    39 1   
    36    32    33 1   
    37    39    38 ar  
    38    39    34 ar  
    39    38    37 ar  
    40    33    34 1   
    41    34    35 ar  
    42    37    36 ar  
    43    35    36 ar  
    44     1    40 1   
    45     1    41 1   
    46     1    42 1   
    47     2    43 1   
    48     2    44 1   
    49     3    45 1   
    50     4    46 1   
    51     5    47 1   
    52     5    48 1   
    53     5    49 1   
    54     8    50 1   
    55     9    51 1   
    56    10    52 1   
    57    11    53 1   
    58    11    54 1   
    59    12    55 1   
    60    12    56 1   
    61    13    57 1   
    62    13    58 1   
    63    14    59 1   
    64    14    60 1   
    65    15    61 1   
    66    15    62 1   
    67    19    63 1   
    68    19    64 1   
    69    20    65 1   
    70    21    66 1   
    71    21    67 1   
    72    22    68 1   
    73    22    69 1   
    74    23    70 1   
    75    23    71 1   
    76    25    72 1   
    77    25    73 1   
    78    26    74 1   
    79    29    75 1   
    80    30    76 1   
    81    31    77 1   
    82    31    78 1   
    83    32    79 1   
    84    32    80 1   
    85    35    81 1   
    86    36    82 1   
    87    37    83 1   
    88    38    84 1   
@<TRIPOS>SUBSTRUCTURE
     1 2DX         1 TEMP              0 ****  ****    0 ROOT
