@<TRIPOS>MOLECULE
2DY
   88    93     1     0     0
SMALL
bcc


@<TRIPOS>ATOM
      1 C1           0.0000     0.0000     0.0000 c3         1 2DY      -0.002100
      2 C2           1.5290     0.0000     0.0000 c3         1 2DY      -0.024400
      3 C3           2.0400     0.0000     1.4420 c3         1 2DY       0.051500
      4 N5           1.6510     1.2550     2.0990 n7         1 2DY      -0.555200
      5 C6           1.8180     1.1610     3.5560 c3         1 2DY       0.165100
      6 C7           3.5420    -0.1230     1.4440 c          1 2DY       0.568100
      7 O8           4.2320     0.8730     1.3920 o          1 2DY      -0.627100
      8 N9           4.1180    -1.3410     1.5020 ns         1 2DY      -0.184900
      9 C10          5.5780    -1.4600     1.5020 c3         1 2DY      -0.061300
     10 C12          6.1020    -1.3050     2.9320 c3         1 2DY      -0.047700
     11 C13          5.6930     0.0640     3.4800 c3         1 2DY      -0.049400
     12 C14          6.2160     0.2180     4.9090 c3         1 2DY      -0.019900
     13 C15          5.6220    -0.8820     5.7910 c3         1 2DY      -0.028400
     14 C16          6.0300    -2.2510     5.2440 c3         1 2DY      -0.019900
     15 C17          5.5080    -2.4060     3.8150 c3         1 2DY      -0.049400
     16 C18          5.9720    -2.8130     0.9680 c          1 2DY       0.578100
     17 O19          5.3230    -3.7940     1.2620 o          1 2DY      -0.609100
     18 N20          7.0440    -2.9320     0.1600 n          1 2DY      -0.129800
     19 C21          7.7730    -1.7270    -0.2840 c3         1 2DY       0.039000
     20 C22          9.2520    -1.9810     0.0020 c3         1 2DY       0.092500
     21 C24         10.1810    -0.9440    -0.6600 c3         1 2DY       0.050900
     22 C25         11.3750    -1.7960    -1.0210 ca         1 2DY      -0.155300
     23 C26         12.6650    -1.4290    -1.3340 ca         1 2DY      -0.045000
     24 C27         13.5650    -2.4480    -1.6220 ca         1 2DY      -0.133000
     25 C28         13.1820    -3.7730    -1.5950 ca         1 2DY      -0.070000
     26 C29         11.8860    -4.1560    -1.2900 ca         1 2DY      -0.132000
     27 C30         10.9670    -3.1460    -1.0070 ca         1 2DY       0.023600
     28 N31          9.6190    -3.2230    -0.7300 nh         1 2DY      -0.358000
     29 C32          9.0400    -4.4060    -0.1230 c3         1 2DY       0.152800
     30 C33          7.4940    -4.2610    -0.2730 c3         1 2DY      -0.036300
     31 C35          6.8100    -5.3390     0.5270 c          1 2DY       0.563100
     32 O36          6.6100    -5.1800     1.7130 o          1 2DY      -0.599100
     33 N37          6.4200    -6.4800    -0.0750 ns         1 2DY      -0.178900
     34 C38          5.7540    -7.5280     0.7040 c3         1 2DY       0.097000
     35 C40          5.9740    -8.8830     0.0260 c3         1 2DY      -0.087400
     36 C41          5.0370    -9.9060     0.6790 c3         1 2DY       0.225400
     37 O42          3.6890    -9.5250     0.3990 os         1 2DY      -0.312900
     38 C43          3.3340    -8.2340     0.6300 ca         1 2DY       0.158100
     39 C44          1.9800    -7.9240     0.7160 ca         1 2DY      -0.150000
     40 C45          1.5790    -6.6240     0.9450 ca         1 2DY      -0.070000
     41 C46          2.5240    -5.6250     1.0910 ca         1 2DY      -0.136000
     42 C47          3.8690    -5.9310     1.0110 ca         1 2DY      -0.120000
     43 C48          4.2770    -7.2330     0.7820 ca         1 2DY      -0.197300
     44 H1          -0.3610     1.0190     0.0660 hc         1 2DY       0.005367
     45 H2          -0.3610    -0.4530    -0.9160 hc         1 2DY       0.005367
     46 H3          -0.3610    -0.5670     0.8500 hc         1 2DY       0.005367
     47 H4           1.8900     0.8840    -0.5110 hc         1 2DY       0.026700
     48 H5           1.8900    -0.8840    -0.5110 hc         1 2DY       0.026700
     49 H6           1.6090    -0.8370     1.9780 h1         1 2DY       0.013700
     50 H7           0.6950     1.4620     1.8850 hn         1 2DY       0.256800
     51 H9           1.9410     0.1220     3.8390 h1         1 2DY       0.003033
     52 H10          2.6940     1.7230     3.8560 h1         1 2DY       0.003033
     53 H11          0.9420     1.5680     4.0470 h1         1 2DY       0.003033
     54 H12          3.5490    -2.1640     1.5000 hn         1 2DY       0.194500
     55 H13          6.0040    -0.6860     0.8760 h1         1 2DY       0.067700
     56 H14          7.1820    -1.3860     2.9370 hc         1 2DY       0.030700
     57 H15          4.6130     0.1420     3.4820 hc         1 2DY       0.037200
     58 H16          6.1160     0.8420     2.8560 hc         1 2DY       0.037200
     59 H17          5.9240     1.1860     5.2960 hc         1 2DY       0.012200
     60 H18          7.2960     0.1340     4.9080 hc         1 2DY       0.012200
     61 H19          4.5420    -0.8010     5.7890 hc         1 2DY       0.010700
     62 H20          5.9960    -0.7730     6.8020 hc         1 2DY       0.010700
     63 H21          5.6060    -3.0290     5.8680 hc         1 2DY       0.012200
     64 H22          7.1110    -2.3310     5.2430 hc         1 2DY       0.012200
     65 H23          5.8000    -3.3740     3.4280 hc         1 2DY       0.037200
     66 H24          4.4280    -2.3220     3.8160 hc         1 2DY       0.037200
     67 H25          7.4320    -0.8620     0.2720 h1         1 2DY       0.046200
     68 H26          7.6230    -1.5750    -1.3460 h1         1 2DY       0.046200
     69 H27          9.4460    -2.0740     1.0640 h1         1 2DY       0.042700
     70 H28          9.7200    -0.5460    -1.5560 hc         1 2DY       0.032700
     71 H29         10.4660    -0.1840     0.0580 hc         1 2DY       0.032700
     72 H30         12.9660    -0.3880    -1.3550 ha         1 2DY       0.108000
     73 H31         14.5910    -2.1970    -1.8660 ha         1 2DY       0.104000
     74 H32         13.9150    -4.5360    -1.8260 ha         1 2DY       0.099000
     75 H33         11.5980    -5.2000    -1.2730 ha         1 2DY       0.110000
     76 H34          9.3810    -5.2940    -0.6410 h1         1 2DY       0.030700
     77 H35          9.3080    -4.4530     0.9260 h1         1 2DY       0.030700
     78 H36          7.2380    -4.3860    -1.3180 h1         1 2DY       0.036700
     79 H37          6.6130    -6.6250    -1.0460 hn         1 2DY       0.172500
     80 H38          6.1670    -7.5560     1.7050 h1         1 2DY       0.060700
     81 H39          7.0030    -9.1940     0.1610 hc         1 2DY       0.028200
     82 H40          5.7470    -8.8030    -1.0300 hc         1 2DY       0.028200
     83 H41          5.2240   -10.8820     0.2470 h1         1 2DY       0.017700
     84 H42          5.1910    -9.8930     1.7510 h1         1 2DY       0.017700
     85 H43          1.2380    -8.7050     0.6010 ha         1 2DY       0.113000
     86 H44          0.5240    -6.3850     1.0080 ha         1 2DY       0.097000
     87 H45          2.2100    -4.6040     1.2710 ha         1 2DY       0.097000
     88 H46          4.6070    -5.1460     1.1260 ha         1 2DY       0.207000
@<TRIPOS>BOND
     1     1     2 1   
     2     1    44 1   
     3     1    45 1   
     4     1    46 1   
     5     2     3 1   
     6     2    47 1   
     7     2    48 1   
     8     3     4 1   
     9     3     6 1   
    10     3    49 1   
    11     4     5 1   
    12     4    50 1   
    13     5    51 1   
    14     5    52 1   
    15     5    53 1   
    16     6     7 2   
    17     6     8 1   
    18     8     9 1   
    19     8    54 1   
    20     9    10 1   
    21     9    16 1   
    22     9    55 1   
    23    10    11 1   
    24    10    15 1   
    25    10    56 1   
    26    11    12 1   
    27    11    57 1   
    28    11    58 1   
    29    12    13 1   
    30    12    59 1   
    31    12    60 1   
    32    13    14 1   
    33    13    61 1   
    34    13    62 1   
    35    14    15 1   
    36    14    63 1   
    37    14    64 1   
    38    15    65 1   
    39    15    66 1   
    40    16    17 2   
    41    16    18 1   
    42    18    19 1   
    43    18    30 1   
    44    19    20 1   
    45    19    67 1   
    46    19    68 1   
    47    20    21 1   
    48    20    28 1   
    49    20    69 1   
    50    21    22 1   
    51    21    70 1   
    52    21    71 1   
    53    22    23 ar  
    54    22    27 ar  
    55    23    24 ar  
    56    23    72 1   
    57    24    25 ar  
    58    24    73 1   
    59    25    26 ar  
    60    25    74 1   
    61    26    27 ar  
    62    26    75 1   
    63    27    28 1   
    64    28    29 1   
    65    29    30 1   
    66    29    76 1   
    67    29    77 1   
    68    30    31 1   
    69    30    78 1   
    70    31    32 2   
    71    31    33 1   
    72    33    34 1   
    73    33    79 1   
    74    34    35 1   
    75    34    43 1   
    76    34    80 1   
    77    35    36 1   
    78    35    81 1   
    79    35    82 1   
    80    36    37 1   
    81    36    83 1   
    82    36    84 1   
    83    37    38 1   
    84    38    39 ar  
    85    38    43 ar  
    86    39    40 ar  
    87    39    85 1   
    88    40    41 ar  
    89    40    86 1   
    90    41    42 ar  
    91    41    87 1   
    92    42    43 ar  
    93    42    88 1   
@<TRIPOS>SUBSTRUCTURE
     1 2DY         1 TEMP              0 ****  ****    0 ROOT
