@<TRIPOS>MOLECULE
molecule
   88    93     1     0     0
SMALL
bcc


@<TRIPOS>ATOM
      1 C1           0.0000     0.0000     0.0000 c3         1 2DY      -0.099100
      2 C2           1.5290     0.0000     0.0000 c3         1 2DY      -0.082400
      3 C3           2.0400     0.0000     1.4420 c3         1 2DY       0.101500
      4 N5           1.6510     1.2550     2.0990 n7         1 2DY      -0.795200
      5 C6           1.8180     1.1610     3.5560 c3         1 2DY       0.142100
      6 C7           3.5420    -0.1230     1.4440 c          1 2DY       0.659100
      7 O8           4.2320     0.8730     1.3920 o          1 2DY      -0.586100
      8 N9           4.1180    -1.3410     1.5020 ns         1 2DY      -0.576900
      9 C10          5.5780    -1.4600     1.5020 c3         1 2DY       0.050700
     10 C12          6.1020    -1.3050     2.9320 c3         1 2DY      -0.073700
     11 C13          5.6930     0.0640     3.4800 c3         1 2DY      -0.078400
     12 C14          6.2160     0.2180     4.9090 c3         1 2DY      -0.078400
     13 C15          5.6220    -0.8820     5.7910 c3         1 2DY      -0.082400
     14 C16          6.0300    -2.2510     5.2440 c3         1 2DY      -0.078400
     15 C17          5.5080    -2.4060     3.8150 c3         1 2DY      -0.078400
     16 C18          5.9720    -2.8130     0.9680 c          1 2DY       0.657100
     17 O19          5.3230    -3.7940     1.2620 o          1 2DY      -0.586100
     18 N20          7.0440    -2.9320     0.1600 n          1 2DY      -0.479800
     19 C21          7.7730    -1.7270    -0.2840 c3         1 2DY       0.110000
     20 C22          9.2520    -1.9810     0.0020 c3         1 2DY       0.156500
     21 C24         10.1810    -0.9440    -0.6600 c3         1 2DY      -0.027100
     22 C25         11.3750    -1.7960    -1.0210 ca         1 2DY      -0.146300
     23 C26         12.6650    -1.4290    -1.3340 ca         1 2DY      -0.078000
     24 C27         13.5650    -2.4480    -1.6220 ca         1 2DY      -0.162000
     25 C28         13.1820    -3.7730    -1.5950 ca         1 2DY      -0.096000
     26 C29         11.8860    -4.1560    -1.2900 ca         1 2DY      -0.165000
     27 C30         10.9670    -3.1460    -1.0070 ca         1 2DY       0.122600
     28 N31          9.6190    -3.2230    -0.7300 nh         1 2DY      -0.624000
     29 C32          9.0400    -4.4060    -0.1230 c3         1 2DY       0.183800
     30 C33          7.4940    -4.2610    -0.2730 c3         1 2DY       0.048700
     31 C35          6.8100    -5.3390     0.5270 c          1 2DY       0.656100
     32 O36          6.6100    -5.1800     1.7130 o          1 2DY      -0.569100
     33 N37          6.4200    -6.4800    -0.0750 ns         1 2DY      -0.575900
     34 C38          5.7540    -7.5280     0.7040 c3         1 2DY       0.179000
     35 C40          5.9740    -8.8830     0.0260 c3         1 2DY      -0.139400
     36 C41          5.0370    -9.9060     0.6790 c3         1 2DY       0.150400
     37 O42          3.6890    -9.5250     0.3990 os         1 2DY      -0.335900
     38 C43          3.3340    -8.2340     0.6300 ca         1 2DY       0.146100
     39 C44          1.9800    -7.9240     0.7160 ca         1 2DY      -0.169000
     40 C45          1.5790    -6.6240     0.9450 ca         1 2DY      -0.097000
     41 C46          2.5240    -5.6250     1.0910 ca         1 2DY      -0.170000
     42 C47          3.8690    -5.9310     1.0110 ca         1 2DY      -0.090000
     43 C48          4.2770    -7.2330     0.7820 ca         1 2DY      -0.191300
     44 H1          -0.3610     1.0190     0.0660 hc         1 2DY       0.037700
     45 H2          -0.3610    -0.4530    -0.9160 hc         1 2DY       0.037700
     46 H3          -0.3610    -0.5670     0.8500 hc         1 2DY       0.037700
     47 H4           1.8900     0.8840    -0.5110 hc         1 2DY       0.059700
     48 H5           1.8900    -0.8840    -0.5110 hc         1 2DY       0.059700
     49 H6           1.6090    -0.8370     1.9780 h1         1 2DY       0.028700
     50 H7           0.6950     1.4620     1.8850 hn         1 2DY       0.360800
     51 H9           1.9410     0.1220     3.8390 h1         1 2DY       0.035033
     52 H10          2.6940     1.7230     3.8560 h1         1 2DY       0.035033
     53 H11          0.9420     1.5680     4.0470 h1         1 2DY       0.035033
     54 H12          3.5490    -2.1640     1.5000 hn         1 2DY       0.330500
     55 H13          6.0040    -0.6860     0.8760 h1         1 2DY       0.082700
     56 H14          7.1820    -1.3860     2.9370 hc         1 2DY       0.053700
     57 H15          4.6130     0.1420     3.4820 hc         1 2DY       0.057950
     58 H16          6.1160     0.8420     2.8560 hc         1 2DY       0.057950
     59 H17          5.9240     1.1860     5.2960 hc         1 2DY       0.039700
     60 H18          7.2960     0.1340     4.9080 hc         1 2DY       0.039700
     61 H19          4.5420    -0.8010     5.7890 hc         1 2DY       0.037700
     62 H20          5.9960    -0.7730     6.8020 hc         1 2DY       0.037700
     63 H21          5.6060    -3.0290     5.8680 hc         1 2DY       0.039700
     64 H22          7.1110    -2.3310     5.2430 hc         1 2DY       0.039700
     65 H23          5.8000    -3.3740     3.4280 hc         1 2DY       0.057950
     66 H24          4.4280    -2.3220     3.8160 hc         1 2DY       0.057950
     67 H25          7.4320    -0.8620     0.2720 h1         1 2DY       0.070700
     68 H26          7.6230    -1.5750    -1.3460 h1         1 2DY       0.070700
     69 H27          9.4460    -2.0740     1.0640 h1         1 2DY       0.064700
     70 H28          9.7200    -0.5460    -1.5560 hc         1 2DY       0.065200
     71 H29         10.4660    -0.1840     0.0580 hc         1 2DY       0.065200
     72 H30         12.9660    -0.3880    -1.3550 ha         1 2DY       0.137000
     73 H31         14.5910    -2.1970    -1.8660 ha         1 2DY       0.130000
     74 H32         13.9150    -4.5360    -1.8260 ha         1 2DY       0.128000
     75 H33         11.5980    -5.2000    -1.2730 ha         1 2DY       0.133000
     76 H34          9.3810    -5.2940    -0.6410 h1         1 2DY       0.059700
     77 H35          9.3080    -4.4530     0.9260 h1         1 2DY       0.059700
     78 H36          7.2380    -4.3860    -1.3180 h1         1 2DY       0.066700
     79 H37          6.6130    -6.6250    -1.0460 hn         1 2DY       0.313500
     80 H38          6.1670    -7.5560     1.7050 h1         1 2DY       0.086700
     81 H39          7.0030    -9.1940     0.1610 hc         1 2DY       0.058200
     82 H40          5.7470    -8.8030    -1.0300 hc         1 2DY       0.058200
     83 H41          5.2240   -10.8820     0.2470 h1         1 2DY       0.060700
     84 H42          5.1910    -9.8930     1.7510 h1         1 2DY       0.060700
     85 H43          1.2380    -8.7050     0.6010 ha         1 2DY       0.139000
     86 H44          0.5240    -6.3850     1.0080 ha         1 2DY       0.126000
     87 H45          2.2100    -4.6040     1.2710 ha         1 2DY       0.122000
     88 H46          4.6070    -5.1460     1.1260 ha         1 2DY       0.212000
@<TRIPOS>BOND
     1    24    25 ar
     2    24    23 ar
     3    25    26 ar
     4    23    22 ar
     5    26    27 ar
     6    22    27 ar
     7    22    21 1
     8    27    28 1
     9    21    20 1
    10    28    20 1
    11    28    29 1
    12    20    19 1
    13    36    35 1
    14    36    37 1
    15    29    30 1
    16    35    34 1
    17    37    38 1
    18    19    18 1
    19    30    31 1
    20    30    18 1
    21    31    33 1
    22    31    32 2
    23    33    34 1
    24    34    43 1
    25    18    16 1
    26    38    43 ar
    27    38    39 ar
    28    43    42 ar
    29    39    40 ar
    30    16     9 1
    31    16    17 2
    32    42    41 ar
    33     9    10 1
    34     9     8 1
    35    11    10 1
    36    11    12 1
    37    15    14 1
    38    15    10 1
    39    40    41 ar
    40    14    13 1
    41    12    13 1
    42     7     6 2
    43     8     6 1
    44     6     3 1
    45     1     2 1
    46     3     2 1
    47     3     4 1
    48     4     5 1
    49     1    44 1
    50     1    45 1
    51     1    46 1
    52     2    47 1
    53     2    48 1
    54     3    49 1
    55     4    50 1
    56     5    51 1
    57     5    52 1
    58     5    53 1
    59     8    54 1
    60     9    55 1
    61    10    56 1
    62    11    57 1
    63    11    58 1
    64    12    59 1
    65    12    60 1
    66    13    61 1
    67    13    62 1
    68    14    63 1
    69    14    64 1
    70    15    65 1
    71    15    66 1
    72    19    67 1
    73    19    68 1
    74    20    69 1
    75    21    70 1
    76    21    71 1
    77    23    72 1
    78    24    73 1
    79    25    74 1
    80    26    75 1
    81    29    76 1
    82    29    77 1
    83    30    78 1
    84    33    79 1
    85    34    80 1
    86    35    81 1
    87    35    82 1
    88    36    83 1
    89    36    84 1
    90    39    85 1
    91    40    86 1
    92    41    87 1
    93    42    88 1
@<TRIPOS>SUBSTRUCTURE
     1 2DY         1 TEMP              0 ****  ****    0 ROOT
