@<TRIPOS>MOLECULE
molecule
   47    49     1     0     0
SMALL
bcc


@<TRIPOS>ATOM
      1 O            0.0000     0.0000     0.0000 o          1 2DZ      -0.805300
      2 C            1.2080     0.0000     0.0000 c          1 2DZ       0.858600
      3 OXT          1.8790     0.0000     1.1630 o          1 2DZ      -0.805300
      4 CA           1.9620    -0.0050    -1.3060 c3         1 2DZ      -0.094700
      5 N            1.0100    -0.0100    -2.4190 na         1 2DZ       0.001600
      6 CBD          0.5660    -1.1280    -3.0900 ca         1 2DZ      -0.034200
      7 CAO          0.8400    -2.4860    -2.9570 ca         1 2DZ      -0.086000
      8 CAM          0.2330    -3.3950    -3.7920 ca         1 2DZ      -0.199000
      9 CAX         -0.6580    -2.9710    -4.7760 ca         1 2DZ       0.088100
     10 OAU         -1.2490    -3.8830    -5.5930 os         1 2DZ      -0.340900
     11 CAA         -0.9090    -5.2550    -5.3850 c3         1 2DZ       0.133700
     12 CAQ         -0.9440    -1.6300    -4.9250 ca         1 2DZ      -0.118000
     13 CBC         -0.3340    -0.6930    -4.0820 ca         1 2DZ      -0.091800
     14 CAR         -0.4110     0.7170    -3.9800 cc         1 2DZ      -0.142200
     15 CAZ          0.4040     1.1040    -2.9640 cd         1 2DZ      -0.110300
     16 CAW          0.6120     2.4920    -2.5200 c          1 2DZ       0.726300
     17 OAC          0.1490     3.4130    -3.1650 o          1 2DZ      -0.603100
     18 NAT          1.3160     2.7410    -1.3980 ns         1 2DZ      -0.644300
     19 SBH          1.4950     4.2980    -0.8620 sy         1 2DZ       1.424900
     20 OAE          2.1780     4.2180     0.3810 o          1 2DZ      -0.612800
     21 OAF          1.9780     5.0490    -1.9670 o          1 2DZ      -0.612800
     22 CBB         -0.1160     4.9150    -0.5060 ca         1 2DZ      -0.224500
     23 CAN         -0.5810     6.0470    -1.1510 ca         1 2DZ      -0.025000
     24 CAL         -1.8450     6.5310    -0.8710 ca         1 2DZ      -0.085000
     25 CAY         -2.6440     5.8850     0.0530 ca         1 2DZ      -0.148300
     26 CBG         -4.0230     6.4130     0.3570 c3         1 2DZ       0.673200
     27 FAJ         -4.9760     5.4350     0.0510 f          1 2DZ      -0.220633
     28 FAK         -4.1070     6.7380     1.7160 f          1 2DZ      -0.220633
     29 FAI         -4.2640     7.5560    -0.4120 f          1 2DZ      -0.220633
     30 CAP         -2.1800     4.7530     0.6960 ca         1 2DZ      -0.049000
     31 CBA         -0.9180     4.2650     0.4130 ca         1 2DZ      -0.067200
     32 NBF         -0.4230     3.0510     1.0990 no         1 2DZ       0.282200
     33 OAH          0.6880     2.6190     0.8470 o          1 2DZ      -0.148500
     34 OAD         -1.1260     2.4830     1.9160 o          1 2DZ      -0.148500
     35 H2           2.5840     0.8790    -1.3670 h1         1 2DZ       0.056200
     36 H3           2.5850    -0.8900    -1.3600 h1         1 2DZ       0.056200
     37 H4           1.5310    -2.8270    -2.1960 ha         1 2DZ       0.136000
     38 H5           0.4490    -4.4510    -3.6830 ha         1 2DZ       0.124000
     39 H6          -1.4450    -5.8710    -6.0970 h1         1 2DZ       0.032033
     40 H7          -1.1830    -5.5470    -4.3780 h1         1 2DZ       0.032033
     41 H8           0.1570    -5.3880    -5.5230 h1         1 2DZ       0.032033
     42 H9          -1.6370    -1.3030    -5.6900 ha         1 2DZ       0.132000
     43 H10         -1.0180     1.3700    -4.5960 ha         1 2DZ       0.155000
     44 H11          1.7820     1.9920    -0.9240 hn         1 2DZ       0.402500
     45 H12          0.0460     6.5540    -1.8750 ha         1 2DZ       0.176000
     46 H13         -2.2090     7.4180    -1.3760 ha         1 2DZ       0.154000
     47 H14         -2.8080     4.2450     1.4180 ha         1 2DZ       0.179000
@<TRIPOS>BOND
     1    10    11 1   
     2    10     9 1   
     3     8     9 ar  
     4     8     7 ar  
     5     9    12 ar  
     6     7     6 ar  
     7    12    13 ar  
     8     6    13 ar  
     9     6     5 1   
    10    13    14 1   
    11     4     5 1   
    12     4     2 1   
    13     5    15 1   
    14     1     2 1   
    15     2     3 1   
    16    14    15 2   
    17    15    16 1   
    18    16    17 2   
    19    16    18 1   
    20    18    19 1   
    21    33    32 1   
    22    32    34 1   
    23    32    31 1   
    24    19    21 2   
    25    19    22 1   
    26    19    20 2   
    27    31    22 ar  
    28    31    30 ar  
    29    22    23 ar  
    30    30    25 ar  
    31    28    26 1   
    32    23    24 ar  
    33    25    24 ar  
    34    25    26 1   
    35    26    29 1   
    36    26    27 1   
    37     4    35 1   
    38     4    36 1   
    39     7    37 1   
    40     8    38 1   
    41    11    39 1   
    42    11    40 1   
    43    11    41 1   
    44    12    42 1   
    45    14    43 1   
    46    18    44 1   
    47    23    45 1   
    48    24    46 1   
    49    30    47 1   
@<TRIPOS>SUBSTRUCTURE
     1 2DZ         1 TEMP              0 ****  ****    0 ROOT
