@<TRIPOS>MOLECULE
molecule
   45    47     1     0     0
SMALL
bcc


@<TRIPOS>ATOM
      1 C19          0.0000     0.0000     0.0000 c3         1 2E1       0.146800
      2 C20          1.5290     0.0000     0.0000 c3         1 2E1       0.129300
      3 C17          1.5290    -1.2300     2.0120 c3         1 2E1       0.129300
      4 C16         -0.0000    -1.2300     2.0120 c3         1 2E1       0.146800
      5 N21          2.0230     0.0000     1.3830 nh         1 2E1      -0.495000
      6 C3           3.4160    -0.1150     1.3120 cc         1 2E1      -0.007700
      7 C2           4.3340    -0.1440     2.3900 cc         1 2E1       0.255800
      8 C8           3.9980    -0.0620     3.8250 c          1 2E1       0.605600
      9 N24         -0.4940    -1.2310     0.6300 n7         1 2E1      -0.808200
     10 O9           2.8490     0.1350     4.1700 o          1 2E1      -0.595100
     11 N10          4.9650    -0.2050     4.7520 ns         1 2E1      -0.578900
     12 C26          4.6320    -0.1250     6.1770 c3         1 2E1       0.111000
     13 C27          5.9010    -0.3200     7.0090 c3         1 2E1      -0.112100
     14 N1           5.5430    -0.2630     1.8760 nd         1 2E1      -0.508800
     15 N5           5.4920    -0.3070     0.5940 na         1 2E1       0.051400
     16 C4           4.1950    -0.2160     0.1730 cd         1 2E1      -0.150300
     17 C6           3.7170    -0.2290    -1.2260 ca         1 2E1      -0.039000
     18 C11          3.5540    -1.4410    -1.8990 ca         1 2E1      -0.076000
     19 C12          3.1080    -1.4490    -3.2050 ca         1 2E1      -0.018600
     20 Cl25         2.9040    -2.9570    -4.0410 cl         1 2E1      -0.081400
     21 C13          2.8210    -0.2530    -3.8520 ca         1 2E1       0.146100
     22 O24          2.3810    -0.2680    -5.1390 oh         1 2E1      -0.506100
     23 C14          2.9800     0.9560    -3.1910 ca         1 2E1      -0.221000
     24 C15          3.4220     0.9750    -1.8790 ca         1 2E1       0.147100
     25 O23          3.5780     2.1580    -1.2300 oh         1 2E1      -0.490100
     26 H191        -0.3590     0.8570     0.5560 h1         1 2E1       0.042200
     27 H192        -0.3590     0.0500    -1.0210 h1         1 2E1       0.042200
     28 H201         1.8880     0.8860    -0.5100 h1         1 2E1       0.059700
     29 H202         1.8880    -0.8860    -0.5100 h1         1 2E1       0.059700
     30 H171         1.8890    -1.2810     3.0330 h1         1 2E1       0.059700
     31 H172         1.8890    -2.0870     1.4550 h1         1 2E1       0.059700
     32 H161        -0.3590    -2.1160     2.5220 h1         1 2E1       0.042200
     33 H162        -0.3590    -0.3440     2.5210 h1         1 2E1       0.042200
     34 H24         -1.4950    -1.2260     0.6340 hn         1 2E1       0.350800
     35 H10          5.9130    -0.3560     4.4670 hn         1 2E1       0.325500
     36 H261         3.9150    -0.8980     6.4240 h1         1 2E1       0.052200
     37 H262         4.2040     0.8470     6.3930 h1         1 2E1       0.052200
     38 H271         6.3300    -1.2900     6.7910 hc         1 2E1       0.042367
     39 H272         5.6540    -0.2630     8.0620 hc         1 2E1       0.042367
     40 H273         6.6170     0.4550     6.7630 hc         1 2E1       0.042367
     41 H5           6.2860    -0.3940    -0.0090 hn         1 2E1       0.335700
     42 H11          3.8480    -2.3680    -1.4220 ha         1 2E1       0.161000
     43 HA           3.1090    -0.1260    -5.7220 ho         1 2E1       0.426000
     44 H14          2.7530     1.8850    -3.6990 ha         1 2E1       0.156000
     45 H23          4.0810     2.7470    -1.7670 ho         1 2E1       0.424000
@<TRIPOS>BOND
     1     1     2 1
     2     1     9 1
     3     1    26 1
     4     1    27 1
     5     2     5 1
     6     2    28 1
     7     2    29 1
     8     3     4 1
     9     3     5 1
    10     3    30 1
    11     3    31 1
    12     4     9 1
    13     4    32 1
    14     4    33 1
    15     5     6 1
    16     6     7 1
    17     6    16 2
    18     7     8 1
    19     7    14 2
    20     8    10 2
    21     8    11 1
    22     9    34 1
    23    11    12 1
    24    11    35 1
    25    12    13 1
    26    12    36 1
    27    12    37 1
    28    13    38 1
    29    13    39 1
    30    13    40 1
    31    14    15 1
    32    15    16 1
    33    15    41 1
    34    16    17 1
    35    17    18 ar
    36    17    24 ar
    37    18    19 ar
    38    18    42 1
    39    19    20 1
    40    19    21 ar
    41    21    22 1
    42    21    23 ar
    43    22    43 1
    44    23    24 ar
    45    23    44 1
    46    24    25 1
    47    25    45 1
@<TRIPOS>SUBSTRUCTURE
     1 2E1         1 TEMP              0 ****  ****    0 ROOT
