@<TRIPOS>MOLECULE
2E2
   47    50     1     0     0
SMALL
bcc


@<TRIPOS>ATOM
      1 O2           0.0000     0.0000     0.0000 o          1 2E2      -0.726500
      2 C2           1.2160     0.0000     0.0000 c          1 2E2       0.596500
      3 N3           1.8790     0.0000     1.1700 ns         1 2E2      -0.101500
      4 C4           3.2280     0.0010     1.1880 c          1 2E2       0.641700
      5 O4           3.8290    -0.0000     2.2470 o          1 2E2      -0.697500
      6 C5           3.9380     0.0030    -0.0370 cc         1 2E2      -0.321400
      7 CAR          5.4460     0.0020    -0.0460 c3         1 2E2       0.111100
      8 C6           3.2470     0.0020    -1.1970 cd         1 2E2      -0.067400
      9 N1           1.8790    -0.0030    -1.1710 n          1 2E2       0.049000
     10 CAJ          1.1300    -0.0090    -2.4290 c3         1 2E2       0.233500
     11 OAF          2.0090    -0.3180    -3.5180 os         1 2E2      -0.450600
     12 CAI          0.5360     1.3950    -2.6930 c3         1 2E2      -0.210400
     13 CAG          0.7450     1.5460    -4.2160 c3         1 2E2       0.157100
     14 OAH          0.8080     2.9020    -4.6040 os         1 2E2      -0.341600
     15 CAE          2.0870     0.8110    -4.4170 c3         1 2E2       0.109100
     16 CAC          3.2430     1.6920    -3.9340 c3         1 2E2       0.083400
     17 OAD          3.1180     3.0100    -4.4680 os         1 2E2      -0.342600
     18 CAB          1.9000     3.6530    -4.0740 c3         1 2E2       0.465700
     19 PAA          1.8590     5.3510    -4.7360 p5         1 2E2       0.427700
     20 OBB          1.9740     5.3040    -6.3420 o          1 2E2      -0.715833
     21 OBA          0.5840     6.0000    -4.3530 o          1 2E2      -0.715833
     22 OBC          3.0910     6.1930    -4.1340 o          1 2E2      -0.715833
     23 CAU          1.8080     3.6910    -2.5700 ca         1 2E2      -0.073300
     24 CAV          2.9150     3.3670    -1.8050 ca         1 2E2      -0.139000
     25 CAW          2.8380     3.3990    -0.4270 ca         1 2E2      -0.102500
     26 CAX          1.6410     3.7600     0.1940 ca         1 2E2      -0.163600
     27 CCA          1.5510     3.7970     1.6670 c          1 2E2       0.992200
     28 OCB          0.3940     4.1450     2.2640 o          1 2E2      -0.922800
     29 OCA          2.5200     3.5130     2.3430 o          1 2E2      -0.922800
     30 CAY          0.5280     4.0850    -0.5850 ca         1 2E2      -0.102500
     31 CAZ          0.6210     4.0540    -1.9610 ca         1 2E2      -0.139000
     32 H1           1.3700    -0.0010     2.0320 hn         1 2E2       0.201500
     33 H2           5.8090     0.9500     0.3340 hc         1 2E2      -0.002967
     34 H3           5.8100    -0.8020     0.5820 hc         1 2E2      -0.002967
     35 H4           5.8010    -0.1410    -1.0590 hc         1 2E2      -0.002967
     36 H5           3.7710    -0.1070    -2.1390 h4         1 2E2       0.155000
     37 H6           0.3320    -0.7410    -2.3850 h2         1 2E2       0.026700
     38 H7           1.0880     2.1540    -2.1520 hc         1 2E2       0.098700
     39 H8          -0.5180     1.4200    -2.4440 hc         1 2E2       0.098700
     40 H9          -0.0450     1.0360    -4.7550 h1         1 2E2       0.003700
     41 H10          2.2220     0.4950    -5.4440 h1         1 2E2       0.032700
     42 H11          4.1810     1.2610    -4.2630 h1         1 2E2       0.015700
     43 H12          3.2260     1.7420    -2.8520 h1         1 2E2       0.015700
     44 H15          3.8430     3.0880    -2.2880 ha         1 2E2       0.126500
     45 H16          3.7050     3.1460     0.1710 ha         1 2E2       0.106500
     46 H18         -0.4030     4.3680    -0.1100 ha         1 2E2       0.106500
     47 H19         -0.2420     4.3070    -2.5660 ha         1 2E2       0.126500
@<TRIPOS>BOND
     1     1     2 2   
     2     2     3 1   
     3     2     9 1   
     4     3     4 1   
     5     3    32 1   
     6     4     5 2   
     7     4     6 1   
     8     6     7 1   
     9     6     8 2   
    10     7    33 1   
    11     7    34 1   
    12     7    35 1   
    13     8     9 1   
    14     8    36 1   
    15     9    10 1   
    16    10    11 1   
    17    10    12 1   
    18    10    37 1   
    19    11    15 1   
    20    12    13 1   
    21    12    38 1   
    22    12    39 1   
    23    13    14 1   
    24    13    15 1   
    25    13    40 1   
    26    14    18 1   
    27    15    16 1   
    28    15    41 1   
    29    16    17 1   
    30    16    42 1   
    31    16    43 1   
    32    17    18 1   
    33    18    19 1   
    34    18    23 1   
    35    19    20 1   
    36    19    21 1   
    37    19    22 1   
    38    23    24 ar  
    39    23    31 ar  
    40    24    25 ar  
    41    24    44 1   
    42    25    26 ar  
    43    25    45 1   
    44    26    27 1   
    45    26    30 ar  
    46    27    28 1   
    47    27    29 1   
    48    30    31 ar  
    49    30    46 1   
    50    31    47 1   
@<TRIPOS>SUBSTRUCTURE
     1 2E2         1 TEMP              0 ****  ****    0 ROOT
