@<TRIPOS>MOLECULE
molecule
   54    56     1     0     0
SMALL
bcc


@<TRIPOS>ATOM
      1 CAA          0.0000     0.0000     0.0000 c3         1 2E3      -0.046800
      2 CAS          1.5070     0.0000     0.0000 ca         1 2E3      -0.055300
      3 CAN          2.1990     0.0000     1.1910 ca         1 2E3      -0.136000
      4 CAX          3.5890     0.0020     1.2060 ca         1 2E3      -0.069300
      5 CAZ          4.2740     0.0180     2.5470 c3         1 2E3      -0.014700
      6 CAB          4.2190     1.4330     3.1250 c3         1 2E3      -0.080100
      7 CAC          3.5520    -0.9430     3.4940 c3         1 2E3      -0.080100
      8 CAP          5.7330    -0.4130     2.4110 c3         1 2E3      -0.071400
      9 CAQ          6.3830     0.4210     1.3010 c3         1 2E3      -0.070400
     10 CBA          5.7920    -0.0160    -0.0380 c3         1 2E3      -0.016700
     11 CAD          6.2740    -1.4310    -0.3640 c3         1 2E3      -0.081100
     12 CAE          6.2640     0.9430    -1.1340 c3         1 2E3      -0.081100
     13 CAY          4.2870    -0.0050     0.0170 ca         1 2E3      -0.075300
     14 CAO          3.5990    -0.0040    -1.1870 ca         1 2E3      -0.112000
     15 CAV          2.2080    -0.0080    -1.2040 cp         1 2E3      -0.014000
     16 CAW          1.4770    -0.0120    -2.4940 cp         1 2E3      -0.070000
     17 CAM          1.5740    -1.1050    -3.3450 ca         1 2E3      -0.101000
     18 CAU          0.6820     1.0840    -2.8550 ca         1 2E3       0.098100
     19 OAH          0.5820     2.1500    -2.0220 oh         1 2E3      -0.511100
     20 CAL         -0.0040     1.0800    -4.0630 ca         1 2E3      -0.203000
     21 CAK          0.0940     0.0000    -4.9120 ca         1 2E3      -0.107000
     22 CAT          0.8820    -1.1030    -4.5590 ca         1 2E3      -0.035800
     23 CAJ          0.9850    -2.2530    -5.4670 ce         1 2E3      -0.177200
     24 CAI          0.3190    -2.2480    -6.6430 cf         1 2E3      -0.134200
     25 CAR          0.4190    -3.3590    -7.5190 c          1 2E3       0.859800
     26 OAG         -0.2460    -3.3530    -8.6930 o          1 2E3      -0.840800
     27 OAF          1.1030    -4.3160    -7.2120 o          1 2E3      -0.840800
     28 HAA         -0.3610    -0.5780    -0.8420 hc         1 2E3       0.046033
     29 HAAA        -0.3610    -0.4400     0.9220 hc         1 2E3       0.046033
     30 HAAB        -0.3610     1.0180    -0.0790 hc         1 2E3       0.046033
     31 HAN          1.6530     0.0020     2.1270 ha         1 2E3       0.125000
     32 HAB          4.3150     2.1550     2.3230 hc         1 2E3       0.034033
     33 HABA         3.2720     1.5790     3.6310 hc         1 2E3       0.034033
     34 HABB         5.0300     1.5670     3.8300 hc         1 2E3       0.034033
     35 HAC          2.6150    -0.5020     3.8110 hc         1 2E3       0.034033
     36 HACA         4.1740    -1.1300     4.3620 hc         1 2E3       0.034033
     37 HACB         3.3570    -1.8770     2.9820 hc         1 2E3       0.034033
     38 HAP          5.7790    -1.4640     2.1510 hc         1 2E3       0.041700
     39 HAPA         6.2520    -0.2410     3.3460 hc         1 2E3       0.041700
     40 HAQ          6.1520     1.4670     1.4640 hc         1 2E3       0.043200
     41 HAQA         7.4490     0.2310     1.2950 hc         1 2E3       0.043200
     42 HAD          6.2710    -1.5760    -1.4370 hc         1 2E3       0.036200
     43 HADA         5.6140    -2.1530     0.1000 hc         1 2E3       0.036200
     44 HADB         7.2800    -1.5660     0.0160 hc         1 2E3       0.036200
     45 HAE          6.0920     0.4940    -2.1050 hc         1 2E3       0.036200
     46 HAEA         7.3210     1.1400    -1.0100 hc         1 2E3       0.036200
     47 HAEB         5.7120     1.8720    -1.0620 hc         1 2E3       0.036200
     48 HAO          4.1490    -0.0120    -2.1200 ha         1 2E3       0.139000
     49 HAM          2.1840    -1.9570    -3.0690 ha         1 2E3       0.142000
     50 HOAH         0.5420     2.9430    -2.5310 ho         1 2E3       0.408000
     51 HAL         -0.6150     1.9300    -4.3390 ha         1 2E3       0.120000
     52 HAK         -0.4430     0.0020    -5.8530 ha         1 2E3       0.148000
     53 HAJ          1.5940    -3.1060    -5.1940 ha         1 2E3       0.154000
     54 HAI         -0.2910    -1.3950    -6.9170 ha         1 2E3       0.102000
@<TRIPOS>BOND
     1     1     2 1   
     2     1    28 1   
     3     1    29 1   
     4     1    30 1   
     5     2    15 ar  
     6     2     3 ar  
     7     3     4 ar  
     8     3    31 1   
     9     4    13 ar  
    10     4     5 1   
    11     7     5 1   
    12     5     6 1   
    13     5     8 1   
    14     6    32 1   
    15     6    33 1   
    16     6    34 1   
    17     7    35 1   
    18     7    36 1   
    19     7    37 1   
    20     8     9 1   
    21     8    38 1   
    22     8    39 1   
    23    10     9 1   
    24     9    40 1   
    25     9    41 1   
    26    13    10 1   
    27    11    10 1   
    28    10    12 1   
    29    11    42 1   
    30    11    43 1   
    31    11    44 1   
    32    12    45 1   
    33    12    46 1   
    34    12    47 1   
    35    14    13 ar  
    36    15    14 ar  
    37    14    48 1   
    38    16    15 1   
    39    18    16 ar  
    40    16    17 ar  
    41    22    17 ar  
    42    17    49 1   
    43    20    18 ar  
    44    19    18 1   
    45    19    50 1   
    46    20    21 ar  
    47    20    51 1   
    48    21    22 ar  
    49    21    52 1   
    50    22    23 1   
    51    24    23 2   
    52    23    53 1   
    53    24    25 1   
    54    24    54 1   
    55    27    25 1   
    56    25    26 1   
@<TRIPOS>SUBSTRUCTURE
     1 2E3         1 TEMP              0 ****  ****    0 ROOT
