@<TRIPOS>MOLECULE
2E3
   54    56     1     0     0
SMALL
bcc


@<TRIPOS>ATOM
      1 CAA        -0.0500    0.3310    0.0720 c3        1 2E3     -0.053800
      2 CAS         1.4230    0.1800    0.0350 ca        1 2E3     -0.054300
      3 CAN         2.1600    0.2120    1.2190 ca        1 2E3     -0.141000
      4 CAX         3.5550    0.0700    1.2320 ca        1 2E3     -0.070300
      5 CAZ         4.2600    0.0940    2.5610 c3        1 2E3     -0.000700
      6 CAB         4.2410    1.5140    3.1180 c3        1 2E3     -0.083100
      7 CAC         3.5550   -0.8290    3.5550 c3        1 2E3     -0.083100
      8 CAP         5.7040   -0.3930    2.4320 c3        1 2E3     -0.067400
      9 CAQ         6.4030    0.1970    1.2330 c3        1 2E3     -0.067400
     10 CBA         5.7310   -0.1950   -0.0830 c3        1 2E3     -0.001700
     11 CAD         6.1020   -1.6300   -0.4480 c3        1 2E3     -0.084600
     12 CAE         6.2680    0.7380   -1.1680 c3        1 2E3     -0.084600
     13 CAY         4.2330   -0.0780    0.0120 ca        1 2E3     -0.073300
     14 CAO         3.4900   -0.1300   -1.1750 ca        1 2E3     -0.116000
     15 CAV         2.0980    0.0000   -1.1850 cp        1 2E3      0.002000
     16 CAW         1.3900   -0.0840   -2.4650 cp        1 2E3     -0.093000
     17 CAM         1.3800   -1.3010   -3.1600 ca        1 2E3     -0.108000
     18 CAU         0.7410    1.0180   -3.0500 ca        1 2E3      0.104100
     19 OAH         0.7470    2.2190   -2.3650 oh        1 2E3     -0.512100
     20 CAL         0.0990    0.8920   -4.2910 ca        1 2E3     -0.217000
     21 CAK         0.0970   -0.3260   -4.9590 ca        1 2E3     -0.073000
     22 CAT         0.7430   -1.4420   -4.4000 ca        1 2E3     -0.033800
     23 CAJ         0.7510   -2.7410   -5.0510 ce        1 2E3     -0.183200
     24 CAI         0.6190   -3.0190   -6.3520 cf        1 2E3     -0.145200
     25 CAR         0.4610   -2.0840   -7.5270 c         1 2E3      0.894800
     26 OAG        -0.6640   -1.5360   -7.7210 o         1 2E3     -0.832800
     27 OAF         1.4560   -1.9400   -8.2920 o         1 2E3     -0.832800
     28 HAA        -0.3530    1.2200   -0.5390 hc        1 2E3      0.045700
     29 HAAA       -0.5420   -0.5740   -0.3660 hc        1 2E3      0.045700
     30 HAAB       -0.4220    0.4680    1.1170 hc        1 2E3      0.045700
     31 HAN         1.6250    0.3560    2.1710 ha        1 2E3      0.120000
     32 HAB         4.7940    2.2080    2.4410 hc        1 2E3      0.032700
     33 HABA        4.7190    1.5390    4.1260 hc        1 2E3      0.032700
     34 HABB        3.1880    1.8750    3.2100 hc        1 2E3      0.032700
     35 HAC         4.1890   -0.9610    4.4650 hc        1 2E3      0.032700
     36 HACA        3.3740   -1.8290    3.0940 hc        1 2E3      0.032700
     37 HACB        2.5750   -0.3990    3.8720 hc        1 2E3      0.032700
     38 HAP         5.7070   -1.5130    2.3530 hc        1 2E3      0.036700
     39 HAPA        6.2660   -0.1220    3.3640 hc        1 2E3      0.036700
     40 HAQ         7.4700   -0.1470    1.2150 hc        1 2E3      0.037700
     41 HAQA        6.4140    1.3160    1.3190 hc        1 2E3      0.037700
     42 HAD         5.6070   -1.9220   -1.4060 hc        1 2E3      0.035700
     43 HADA        7.2070   -1.7200   -0.5730 hc        1 2E3      0.035700
     44 HADB        5.7710   -2.3360    0.3500 hc        1 2E3      0.035700
     45 HAE         5.8490    1.7640   -1.0400 hc        1 2E3      0.035700
     46 HAEA        5.9960    0.3660   -2.1840 hc        1 2E3      0.035700
     47 HAEB        7.3820    0.7920   -1.1020 hc        1 2E3      0.035700
     48 HAO         4.0080   -0.2760   -2.1370 ha        1 2E3      0.141000
     49 HAM         1.8940   -2.1660   -2.7140 ha        1 2E3      0.125000
     50 HOAH        0.3730    2.8860   -2.9570 ho        1 2E3      0.407000
     51 HAL        -0.3980    1.7640   -4.7400 ha        1 2E3      0.124000
     52 HAK        -0.4060   -0.4260   -5.9440 ha        1 2E3      0.211000
     53 HAJ         0.9010   -3.5790   -4.3420 ha        1 2E3      0.085000
     54 HAI         0.6530   -4.0770   -6.6690 ha        1 2E3      0.098000
@<TRIPOS>BOND
     1    1    2 1   
     2    1   28 1   
     3    1   29 1   
     4    1   30 1   
     5    2    3 ar  
     6    2   15 ar  
     7    3    4 ar  
     8    3   31 1   
     9    4    5 1   
    10    4   13 ar  
    11    5    6 1   
    12    5    7 1   
    13    5    8 1   
    14    6   32 1   
    15    6   33 1   
    16    6   34 1   
    17    7   35 1   
    18    7   36 1   
    19    7   37 1   
    20    8    9 1   
    21    8   38 1   
    22    8   39 1   
    23    9   10 1   
    24    9   40 1   
    25    9   41 1   
    26   10   11 1   
    27   10   12 1   
    28   10   13 1   
    29   11   42 1   
    30   11   43 1   
    31   11   44 1   
    32   12   45 1   
    33   12   46 1   
    34   12   47 1   
    35   13   14 ar  
    36   14   15 ar  
    37   14   48 1   
    38   15   16 1   
    39   16   17 ar  
    40   16   18 ar  
    41   17   22 ar  
    42   17   49 1   
    43   18   19 1   
    44   18   20 ar  
    45   19   50 1   
    46   20   21 ar  
    47   20   51 1   
    48   21   22 ar  
    49   21   52 1   
    50   22   23 1   
    51   23   24 2   
    52   23   53 1   
    53   24   25 1   
    54   24   54 1   
    55   25   26 1   
    56   25   27 1   
@<TRIPOS>SUBSTRUCTURE
     1 2E3         1 TEMP              0 ****  ****    0 ROOT
