@<TRIPOS>MOLECULE
2E4
   22    22     1     0     0
SMALL
bcc


@<TRIPOS>ATOM
      1 C1         -0.8190   -1.2270    0.8440 ca        1 2E4     -0.261300
      2 C2          0.2300   -0.6350    0.1200 ca        1 2E4      0.317200
      3 O14        -2.7920   -4.2670    4.1840 o         1 2E4     -0.949833
      4 P13        -3.1800   -2.8990    4.6620 p5        1 2E4      1.468900
      5 O15        -3.3300   -1.8960    3.5350 o         1 2E4     -0.949833
      6 O16        -4.2760   -2.8650    5.6870 o         1 2E4     -0.949833
      7 O12        -1.7640   -2.2700    5.4850 os        1 2E4     -0.820800
      8 P9         -0.5460   -1.7070    6.2930 p5        1 2E4      1.575800
      9 O10        -0.8060   -0.3810    6.9250 o         1 2E4     -0.919000
     10 O11         0.2370   -2.7060    7.0690 o         1 2E4     -0.919000
     11 O8          0.5170   -1.2710    5.0330 os        1 2E4     -0.571200
     12 C7          0.1670   -0.1320    4.3410 c3        1 2E4      0.263700
     13 C5          0.1650   -0.3500    2.8500 ca        1 2E4     -0.174600
     14 C6         -0.8630   -1.0840    2.2320 ca        1 2E4     -0.068000
     15 C4          1.1750    0.1970    2.0370 ca        1 2E4      0.339200
     16 N3          1.2230    0.0740    0.6910 nb        1 2E4     -0.757000
     17 H1         -1.6010   -1.8000    0.3290 ha        1 2E4      0.123000
     18 H2          0.2850   -0.7320   -0.9770 h4        1 2E4     -0.047900
     19 H6          0.9210    0.6890    4.5600 h1        1 2E4      0.007200
     20 H7         -0.8560    0.2280    4.6590 h1        1 2E4      0.007200
     21 H8         -1.7270   -1.5270    2.8560 ha        1 2E4      0.307000
     22 H9          2.0040    0.7680    2.4890 h4        1 2E4     -0.022900
@<TRIPOS>BOND
     1    1    2 ar  
     2    1   14 ar  
     3    1   17 1   
     4    2   16 ar  
     5    2   18 1   
     6    3    4 1   
     7    4    5 1   
     8    4    6 1   
     9    4    7 1   
    10    7    8 1   
    11    8    9 1   
    12    8   10 1   
    13    8   11 1   
    14   11   12 1   
    15   12   13 1   
    16   12   19 1   
    17   12   20 1   
    18   13   14 ar  
    19   13   15 ar  
    20   14   21 1   
    21   15   16 ar  
    22   15   22 1   
@<TRIPOS>SUBSTRUCTURE
     1 2E4         1 TEMP              0 ****  ****    0 ROOT
