@<TRIPOS>MOLECULE
molecule
   22    22     1     0     0
SMALL
bcc


@<TRIPOS>ATOM
      1 C1           0.0000     0.0000     0.0000 ca         1 2E4      -0.275300
      2 C2           1.3810     0.0000     0.0000 ca         1 2E4       0.368200
      3 O14         -2.7240    -5.7610     5.8390 o          1 2E4      -0.945500
      4 P13         -2.7210    -4.2860     6.4850 p5         1 2E4       1.293900
      5 O15         -4.0970    -3.7430     6.4810 o          1 2E4      -0.945500
      6 O16         -2.1790    -4.3650     7.9990 o          1 2E4      -0.945500
      7 O12         -1.7610    -3.3250     5.6210 os         1 2E4      -0.704800
      8 P9          -1.5600    -1.7300     5.5350 p5         1 2E4       1.406800
      9 O10         -2.8780    -1.0610     5.6080 o          1 2E4      -0.856000
     10 O11         -0.6400    -1.2380     6.7620 o          1 2E4      -0.856000
     11 O8          -0.8430    -1.3530     4.1430 os         1 2E4      -0.583200
     12 C7          -0.6210    -0.0060     3.7230 c3         1 2E4       0.264700
     13 C5           0.0680    -0.0050     2.3820 ca         1 2E4      -0.152600
     14 C6          -0.6760     0.0000     1.2110 ca         1 2E4      -0.084000
     15 C4           1.4480    -0.0010     2.3030 ca         1 2E4       0.419200
     16 N3           2.0560     0.0000     1.1330 nb         1 2E4      -0.726000
     17 H1          -0.5480     0.0020    -0.9340 ha         1 2E4       0.105000
     18 H2           1.9170     0.0010    -0.9420 h4         1 2E4      -0.017900
     19 H6           0.0030     0.5010     4.4490 h1         1 2E4       0.025700
     20 H7          -1.5710     0.5090     3.6410 h1         1 2E4       0.025700
     21 H8          -1.7590     0.0000     1.2420 ha         1 2E4       0.149000
     22 H9           2.0360    -0.0010     3.2120 h4         1 2E4       0.034100
@<TRIPOS>BOND
     1    16    15 ar
     2    16     2 ar
     3    15    13 ar
     4     2     1 ar
     5    13    12 1
     6    13    14 ar
     7     1    14 ar
     8    12    11 1
     9    11     8 1
    10     5     4 1
    11     3     4 1
    12     8     7 1
    13     8     9 1
    14     8    10 1
    15     7     4 1
    16     4     6 1
    17     1    17 1
    18     2    18 1
    19    12    19 1
    20    12    20 1
    21    14    21 1
    22    15    22 1
@<TRIPOS>SUBSTRUCTURE
     1 2E4         1 TEMP              0 ****  ****    0 ROOT
