@<TRIPOS>MOLECULE
2E5
   22    22     1     0     0
SMALL
bcc


@<TRIPOS>ATOM
      1 C1          0.2390   -0.3540    1.2850 ca        1 2E5      0.325700
      2 C3          0.9060    1.6330    2.2150 ca        1 2E5      0.325700
      3 O14         5.1740    3.3970    3.8920 o         1 2E5     -0.949833
      4 P13         5.3000    3.6310    2.4150 p5        1 2E5      1.468900
      5 O15         3.9650    3.8530    1.7320 o         1 2E5     -0.949833
      6 O16         6.3850    4.5840    2.0060 o         1 2E5     -0.949833
      7 O12         5.7730    2.0830    1.7360 os        1 2E5     -0.820800
      8 P9          6.2530    0.7360    1.0990 p5        1 2E5      1.574800
      9 O10         6.5270    0.8290   -0.3650 o         1 2E5     -0.919000
     10 O11         7.1710   -0.0890    1.9290 o         1 2E5     -0.919000
     11 O8          4.8040   -0.1650    1.1030 os        1 2E5     -0.570200
     12 C7          3.8450    0.2820    0.2190 c3        1 2E5      0.256700
     13 C5          2.4940    0.4190    0.8750 ca        1 2E5     -0.046300
     14 C6          1.4980   -0.5470    0.6900 ca        1 2E5     -0.230300
     15 C4          2.1950    1.5440    1.6610 ca        1 2E5     -0.230300
     16 N2         -0.0730    0.7160    2.0410 nb        1 2E5     -0.747000
     17 H1         -0.5620   -1.0990    1.1530 h4        1 2E5     -0.025900
     18 H2          0.6430    2.5010    2.8440 h4        1 2E5     -0.025900
     19 H6          3.7320   -0.4650   -0.6280 h1        1 2E5      0.009700
     20 H7          4.1430    1.2800   -0.2180 h1        1 2E5      0.009700
     21 H8          1.6960   -1.4480    0.0970 ha        1 2E5      0.205500
     22 H9          2.9810    2.3730    1.8180 ha        1 2E5      0.205500
@<TRIPOS>BOND
     1    1   14 ar  
     2    1   16 ar  
     3    1   17 1   
     4    2   15 ar  
     5    2   16 ar  
     6    2   18 1   
     7    3    4 1   
     8    4    5 1   
     9    4    6 1   
    10    4    7 1   
    11    7    8 1   
    12    8    9 1   
    13    8   10 1   
    14    8   11 1   
    15   11   12 1   
    16   12   13 1   
    17   12   19 1   
    18   12   20 1   
    19   13   14 ar  
    20   13   15 ar  
    21   14   21 1   
    22   15   22 1   
@<TRIPOS>SUBSTRUCTURE
     1 2E5         1 TEMP              0 ****  ****    0 ROOT
