@<TRIPOS>MOLECULE
molecule
   22    22     1     0     0
SMALL
bcc


@<TRIPOS>ATOM
      1 C1           0.0000     0.0000     0.0000 ca         1 2E5       0.379700
      2 C3          -0.0650     0.0110     2.3030 ca         1 2E5       0.379700
      3 O14          7.7670     3.6810     2.9480 o          1 2E5      -0.945167
      4 P13          6.9960     4.2850     1.8390 p5         1 2E5       1.292900
      5 O15          6.4230     5.7170     2.3020 o          1 2E5      -0.945167
      6 O16          7.9570     4.4800     0.5610 o          1 2E5      -0.945167
      7 O12          5.7710     3.3180     1.4460 os         1 2E5      -0.704800
      8 P9           5.6070     1.7220     1.3100 p5         1 2E5       1.406800
      9 O10          6.3160     1.2220    -0.0460 o          1 2E5      -0.855000
     10 O11          6.2400     1.0590     2.4720 o          1 2E5      -0.855000
     11 O8           4.0410     1.3470     1.2660 os         1 2E5      -0.582200
     12 C7           3.5640    -0.0010     1.2530 c3         1 2E5       0.260700
     13 C5           2.0580     0.0000     1.2110 ca         1 2E5      -0.007300
     14 C6           1.3820     0.0000     0.0000 ca         1 2E5      -0.232300
     15 C4           1.3150     0.0100     2.3820 ca         1 2E5      -0.232300
     16 N2          -0.6740     0.0060     1.1340 nb         1 2E5      -0.744000
     17 H1          -0.5360    -0.0020    -0.9420 h4         1 2E5      -0.009400
     18 H2          -0.6520     0.0170     3.2130 h4         1 2E5      -0.009400
     19 H6           3.9490    -0.5120     0.3790 h1         1 2E5       0.027200
     20 H7           3.9000    -0.5120     2.1470 h1         1 2E5       0.027200
     21 H8           1.9300    -0.0050    -0.9340 ha         1 2E5       0.147000
     22 H9           1.8090     0.0140     3.3450 ha         1 2E5       0.147000
@<TRIPOS>BOND
     1     2    15 ar  
     2     2    16 ar  
     3    15    13 ar  
     4    16     1 ar  
     5     1    14 ar  
     6    13    12 1   
     7    13    14 ar  
     8    12    11 1   
     9    11     8 1   
    10     3     4 1   
    11     8     7 1   
    12     8    10 1   
    13     8     9 1   
    14     6     4 1   
    15     7     4 1   
    16     4     5 1   
    17     1    17 1   
    18     2    18 1   
    19    12    19 1   
    20    12    20 1   
    21    14    21 1   
    22    15    22 1   
@<TRIPOS>SUBSTRUCTURE
     1 2E5         1 TEMP              0 ****  ****    0 ROOT
