@<TRIPOS>MOLECULE
2E6
   22    22     1     0     0
SMALL
bcc


@<TRIPOS>ATOM
      1 C1         -1.0720   -0.3020    0.4750 ca        1 2E6     -0.129000
      2 C2          0.2460   -0.5040    0.0470 ca        1 2E6     -0.306300
      3 C3          1.2630   -0.4280    1.0050 ca        1 2E6      0.323200
      4 O14        -5.9320    0.9220    3.9450 o         1 2E6     -0.951500
      5 P13        -4.8620    0.1230    3.2580 p5        1 2E6      1.466900
      6 O15        -5.2810   -1.2430    2.7990 o         1 2E6     -0.951500
      7 O16        -4.0620    0.8840    2.2210 o         1 2E6     -0.951500
      8 O12        -3.6360   -0.1490    4.4870 os        1 2E6     -0.819800
      9 P9         -2.6050   -0.3560    5.6460 p5        1 2E6      1.574800
     10 O10        -2.1730    0.9120    6.3030 o         1 2E6     -0.918500
     11 O11        -2.8290   -1.5460    6.5110 o         1 2E6     -0.918500
     12 O8         -1.2010   -0.7690    4.7670 os        1 2E6     -0.570200
     13 C5         -0.2290   -0.0000    2.7200 ca        1 2E6      0.392600
     14 C6         -1.3280   -0.0410    1.8170 ca        1 2E6     -0.186300
     15 N4          1.0500   -0.1860    2.3170 nb        1 2E6     -0.718000
     16 H1         -1.9090   -0.3460   -0.2360 ha        1 2E6      0.126000
     17 H2          0.4800   -0.7130   -1.0020 ha        1 2E6      0.078000
     18 H3          2.3170   -0.5740    0.7170 h4        1 2E6     -0.050900
     19 H7          0.4430    0.4650    4.7350 h1        1 2E6      0.017700
     20 H8         -1.1520    1.2280    4.2350 h1        1 2E6      0.017700
     21 H9         -2.3970    0.1670    2.1820 ha        1 2E6      0.305000
     22 C7         -0.5320    0.2860    4.1900 c3        1 2E6      0.169100
@<TRIPOS>BOND
     1    1    2 ar  
     2    1   14 ar  
     3    1   16 1   
     4    2    3 ar  
     5    2   17 1   
     6    3   15 ar  
     7    3   18 1   
     8    4    5 1   
     9    5    6 1   
    10    5    7 1   
    11    5    8 1   
    12    8    9 1   
    13    9   10 1   
    14    9   11 1   
    15    9   12 1   
    16   12   22 1   
    17   13   14 ar  
    18   13   15 ar  
    19   13   22 1   
    20   14   21 1   
    21   19   22 1   
    22   20   22 1   
@<TRIPOS>SUBSTRUCTURE
     1 2E6         1 TEMP              0 ****  ****    0 ROOT
