@<TRIPOS>MOLECULE
molecule
   22    22     1     0     0
SMALL
bcc


@<TRIPOS>ATOM
      1 C1           0.0000     0.0000     0.0000 ca         1 2E6      -0.125000
      2 C2           1.3860     0.0000     0.0000 ca         1 2E6      -0.303300
      3 C3           2.0590     0.0000     1.2080 ca         1 2E6       0.385200
      4 O14         -6.6330     0.8300     5.4720 o          1 2E6      -0.945833
      5 P13         -6.0330    -0.4750     4.7440 p5         1 2E6       1.293900
      6 O15         -5.8800    -1.5650     5.7340 o          1 2E6      -0.945833
      7 O16         -7.0350    -0.9480     3.5770 o          1 2E6      -0.945833
      8 O12         -4.5960    -0.1220     4.1100 os         1 2E6      -0.708800
      9 P9          -3.1080     0.0030     4.7100 p5         1 2E6       1.406800
     10 O10         -2.9770     1.3760     5.5400 o          1 2E6      -0.854500
     11 O11         -2.8400    -1.1430     5.6080 o          1 2E6      -0.854500
     12 O8          -2.0400     0.0010     3.5050 os         1 2E6      -0.600200
     13 C5           0.0800    -0.0060     2.3850 ca         1 2E6       0.448600
     14 C6          -0.6610    -0.0000     1.2190 ca         1 2E6      -0.194300
     15 N4           1.3980    -0.0000     2.3480 nb         1 2E6      -0.722000
     16 H1          -0.5420     0.2280    -0.9100 ha         1 2E6       0.117000
     17 H2           1.9270    -0.1700    -0.9230 ha         1 2E6       0.097000
     18 H3           3.1400     0.0160     1.2890 h4         1 2E6      -0.015900
     19 H7          -0.3420     0.8760     4.2770 h1         1 2E6       0.049700
     20 H8          -0.3500    -0.8930     4.2730 h1         1 2E6       0.049700
     21 H9          -1.7300    -0.1720     1.2550 ha         1 2E6       0.200000
     22 C7          -0.6270    -0.0060     3.7170 c3         1 2E6       0.169100
@<TRIPOS>BOND
     1     6     5 1
     2     8     5 1
     3     8     9 1
     4    11     9 1
     5     5     7 1
     6     5     4 1
     7    10     9 1
     8     9    12 1
     9    12    22 1
    10     3    15 ar
    11     3     2 ar
    12    15    13 ar
    13     2     1 ar
    14    13    22 1
    15    13    14 ar
    16     1    14 ar
    17     1    16 1
    18     2    17 1
    19     3    18 1
    20    22    19 1
    21    22    20 1
    22    14    21 1
@<TRIPOS>SUBSTRUCTURE
     1 2E6         1 TEMP              0 ****  ****    0 ROOT
