@<TRIPOS>MOLECULE
molecule
   22    22     1     0     0
SMALL
bcc


@<TRIPOS>ATOM
      1 C1           0.0000     0.0000     0.0000 ca         1 2E7      -0.255300
      2 C2           1.3830     0.0000     0.0000 ca         1 2E7       0.485300
      3 O10         -3.0900    -1.2280     5.5030 o          1 2E7      -0.855500
      4 P9          -1.5610    -1.7320     5.5330 p5         1 2E7       1.409800
      5 O11         -0.8470    -1.0750     6.6500 o          1 2E7      -0.855500
      6 O12         -1.5260    -3.3290     5.7400 os         1 2E7      -0.704800
      7 P13         -1.7750    -4.2990     6.9990 p5         1 2E7       1.297900
      8 O14         -1.9760    -5.8100     6.4810 o          1 2E7      -0.943833
      9 O15         -0.5050    -4.2350     7.9860 o          1 2E7      -0.943833
     10 O16         -2.9880    -3.8620     7.7270 o          1 2E7      -0.943833
     11 O8          -0.8440    -1.3550     4.1420 os         1 2E7      -0.581200
     12 C7          -0.6220    -0.0070     3.7220 c3         1 2E7       0.264700
     13 C5           0.0670    -0.0060     2.3810 ca         1 2E7      -0.151600
     14 C4           1.4470    -0.0010     2.3040 ca         1 2E7       0.439200
     15 N3           2.0570     0.0000     1.1350 nb         1 2E7      -0.715000
     16 C6          -0.6760    -0.0010     1.2100 ca         1 2E7      -0.080000
     17 Cl           2.2420     0.0010    -1.5080 cl         1 2E7      -0.242000
     18 H1          -0.5480     0.0020    -0.9340 ha         1 2E7       0.120000
     19 H5           0.0020     0.4990     4.4480 h1         1 2E7       0.028700
     20 H6          -1.5720     0.5070     3.6400 h1         1 2E7       0.028700
     21 H7           2.0340    -0.0000     3.2140 h4         1 2E7       0.045100
     22 H8          -1.7590    -0.0010     1.2400 ha         1 2E7       0.155000
@<TRIPOS>BOND
     1    10     7 1   
     2     5     4 1   
     3     7     6 1   
     4     7     8 1   
     5     7     9 1   
     6     3     4 1   
     7     6     4 1   
     8     4    11 1   
     9    11    12 1   
    10    15    14 ar  
    11    15     2 ar  
    12    14    13 ar  
    13    17     2 1   
    14     2     1 ar  
    15    13    12 1   
    16    13    16 ar  
    17     1    16 ar  
    18     1    18 1   
    19    12    19 1   
    20    12    20 1   
    21    14    21 1   
    22    16    22 1   
@<TRIPOS>SUBSTRUCTURE
     1 2E7         1 TEMP              0 ****  ****    0 ROOT
