@<TRIPOS>MOLECULE
2E7
   22    22     1     0     0
SMALL
bcc


@<TRIPOS>ATOM
      1 C1         -0.3000   -0.3810    0.4270 ca        1 2E7     -0.246300
      2 C2          0.8360    0.3490    0.0170 ca        1 2E7      0.445300
      3 O10        -2.5430   -1.6660    3.6070 o         1 2E7     -0.920500
      4 P9         -1.8790   -1.5640    4.9480 p5        1 2E7      1.579800
      5 O11        -1.9240   -0.2100    5.5740 o         1 2E7     -0.920500
      6 O12        -2.0170   -2.7740    5.8900 os        1 2E7     -0.791800
      7 P13        -2.2630   -4.1490    7.0380 p5        1 2E7      1.452900
      8 O14        -1.9780   -5.3670    6.2080 o         1 2E7     -0.951833
      9 O15        -1.2630   -3.8810    8.1260 o         1 2E7     -0.951833
     10 O16        -3.7000   -3.9740    7.4370 o         1 2E7     -0.951833
     11 O8         -0.2330   -1.6470    4.4310 os        1 2E7     -0.555200
     12 C7          0.3920   -0.4610    4.1620 c3        1 2E7      0.247700
     13 C5          0.5410   -0.2020    2.6810 ca        1 2E7     -0.159600
     14 C4          1.6320    0.5140    2.1570 ca        1 2E7      0.342200
     15 N3          1.7970    0.8000    0.8450 nb        1 2E7     -0.714000
     16 C6         -0.4450   -0.6570    1.7840 ca        1 2E7     -0.082000
     17 CL          1.0070    0.6920   -1.6820 cl        1 2E7     -0.288000
     18 H1         -1.0460   -0.7180   -0.3010 ha        1 2E7      0.130000
     19 H5          1.4330   -0.4780    4.6060 h1        1 2E7      0.026700
     20 H6         -0.1840    0.4100    4.6060 h1        1 2E7      0.026700
     21 H7          2.4320    0.8850    2.8190 h4        1 2E7     -0.003900
     22 H8         -1.3270   -1.2180    2.2340 ha        1 2E7      0.288000
@<TRIPOS>BOND
     1    1    2 ar  
     2    1   16 ar  
     3    1   18 1   
     4    2   15 ar  
     5    2   17 1   
     6    3    4 1   
     7    4    5 1   
     8    4    6 1   
     9    4   11 1   
    10    6    7 1   
    11    7    8 1   
    12    7    9 1   
    13    7   10 1   
    14   11   12 1   
    15   12   13 1   
    16   12   19 1   
    17   12   20 1   
    18   13   14 ar  
    19   13   16 ar  
    20   14   15 ar  
    21   14   21 1   
    22   16   22 1   
@<TRIPOS>SUBSTRUCTURE
     1 2E7         1 TEMP              0 ****  ****    0 ROOT
