@<TRIPOS>MOLECULE
2E8
   59    63     1     0     0
SMALL
bcc


@<TRIPOS>ATOM
      1 CAL          0.0000     0.0000     0.0000 c3         1 2E8      -0.027400
      2 CAN          1.5300     0.0000     0.0000 c3         1 2E8       0.157800
      3 NBD          2.0210     0.0000     1.3840 n3         1 2E8      -0.543600
      4 CAB          3.4830    -0.1390     1.4240 c3         1 2E8       0.188100
      5 CAO          1.5870     1.2060     2.1010 c3         1 2E8       0.157800
      6 CAM          0.0590     1.2420     2.1640 c3         1 2E8      -0.027400
      7 CBC         -0.5060     1.2410     0.7410 c3         1 2E8      -0.073700
      8 CAP         -2.0350     1.2150     0.7980 c3         1 2E8      -0.001700
      9 NBE         -2.5220     2.4590     1.4000 na         1 2E8       0.380200
     10 NAS         -2.8380     3.6270     0.6980 nc         1 2E8      -0.625100
     11 C4          -2.7440     2.6550     2.7300 ca         1 2E8       0.339800
     12 N3          -2.6180     1.8980     3.8200 nb         1 2E8      -0.684000
     13 C2          -2.9170     2.3750     5.0080 ca         1 2E8       0.699900
     14 N1          -3.3530     3.6090     5.1910 nb         1 2E8      -0.732000
     15 C6          -3.5120     4.4410     4.1660 ca         1 2E8       0.615200
     16 NAC         -3.9680     5.7300     4.3650 nv         1 2E8      -0.567500
     17 C5          -3.2050     3.9770     2.8770 ca         1 2E8      -0.539500
     18 CAX         -3.2450     4.5530     1.5340 cd         1 2E8       0.485500
     19 CAV         -3.6700     5.9280     1.1800 ca         1 2E8      -0.111900
     20 CAJ         -3.2190     6.9990     1.9300 ca         1 2E8      -0.074000
     21 CAE         -4.5240     6.1330     0.0830 ca         1 2E8      -0.065000
     22 CAG         -4.9270     7.3840    -0.2620 ca         1 2E8      -0.101000
     23 CAY         -4.4900     8.4930     0.4850 ca         1 2E8       0.011000
     24 CAI         -4.8940     9.7960     0.1470 ca         1 2E8      -0.150000
     25 CAZ         -3.6250     8.3000     1.5910 ca         1 2E8      -0.077000
     26 CAF         -3.1870     9.4120     2.3310 ca         1 2E8      -0.045000
     27 CAD         -3.5960    10.6600     1.9780 ca         1 2E8      -0.192000
     28 CAU         -4.4530    10.8540     0.8900 ca         1 2E8       0.157100
     29 OAT         -4.8460    12.1120     0.5620 os         1 2E8      -0.306900
     30 CAK         -4.3440    13.1800     1.3690 c3         1 2E8       0.201400
     31 CAA         -4.8910    14.5120     0.8510 c3         1 2E8       0.001900
     32 H1          -0.3600    -0.8910     0.5000 hc         1 2E8       0.027450
     33 H2          -0.3600     0.0180    -1.0220 hc         1 2E8       0.027450
     34 H3           1.8890     0.8860    -0.5090 h1         1 2E8       0.008450
     35 H4           1.8890    -0.8860    -0.5090 h1         1 2E8       0.008450
     36 H6           3.8140    -0.1720     2.4550 h1         1 2E8      -0.000633
     37 H7           3.7720    -1.0540     0.9220 h1         1 2E8      -0.000633
     38 H8           3.9400     0.7070     0.9250 h1         1 2E8      -0.000633
     39 H9           1.9460     2.0850     1.5790 h1         1 2E8       0.008450
     40 H10          1.9870     1.1900     3.1080 h1         1 2E8       0.008450
     41 H11         -0.2600     2.1420     2.6770 hc         1 2E8       0.027450
     42 H12         -0.3010     0.3700     2.6960 hc         1 2E8       0.027450
     43 H13         -0.1740     2.1310     0.2210 hc         1 2E8       0.039700
     44 H14         -2.3600     0.3730     1.3960 h1         1 2E8       0.042700
     45 H15         -2.4320     1.1210    -0.2050 h1         1 2E8       0.042700
     46 H16         -2.8020     1.7310     5.8710 h5         1 2E8      -0.003900
     47 H17         -4.7100     6.0920     3.7990 hn         1 2E8       0.282800
     48 H18         -3.5870     6.2870     5.1040 hn         1 2E8       0.282800
     49 H19         -2.4640     6.8480     2.6920 ha         1 2E8       0.118000
     50 H20         -4.8640     5.2830    -0.4960 ha         1 2E8       0.114000
     51 H21         -5.5850     7.5260    -1.1100 ha         1 2E8       0.111000
     52 H22         -5.5570     9.9590    -0.6930 ha         1 2E8       0.123000
     53 H23         -2.5220     9.2770     3.1760 ha         1 2E8       0.104000
     54 H24         -3.2590    11.5150     2.5520 ha         1 2E8       0.120000
     55 H25         -4.6590    13.0350     2.3950 h1         1 2E8      -0.000800
     56 H26         -3.2620    13.1910     1.3210 h1         1 2E8      -0.000800
     57 H27         -5.9730    14.5010     0.8980 hc         1 2E8       0.011367
     58 H28         -4.5760    14.6570    -0.1750 hc         1 2E8       0.011367
     59 H29         -4.5110    15.3210     1.4630 hc         1 2E8       0.011367
@<TRIPOS>BOND
     1     1     2 1   
     2     1     7 1   
     3     1    32 1   
     4     1    33 1   
     5     2     3 1   
     6     2    34 1   
     7     2    35 1   
     8     3     4 1   
     9     3     5 1   
    10     4    36 1   
    11     4    37 1   
    12     4    38 1   
    13     5     6 1   
    14     5    39 1   
    15     5    40 1   
    16     6     7 1   
    17     6    41 1   
    18     6    42 1   
    19     7     8 1   
    20     7    43 1   
    21     8     9 1   
    22     8    44 1   
    23     8    45 1   
    24     9    10 1   
    25     9    11 1   
    26    10    18 2   
    27    11    12 ar  
    28    11    17 ar  
    29    12    13 ar  
    30    13    14 ar  
    31    13    46 1   
    32    14    15 ar  
    33    15    16 1   
    34    15    17 ar  
    35    16    47 1   
    36    16    48 1   
    37    17    18 1   
    38    18    19 1   
    39    19    20 ar  
    40    19    21 ar  
    41    20    25 ar  
    42    20    49 1   
    43    21    22 ar  
    44    21    50 1   
    45    22    23 ar  
    46    22    51 1   
    47    23    24 ar  
    48    23    25 ar  
    49    24    28 ar  
    50    24    52 1   
    51    25    26 ar  
    52    26    27 ar  
    53    26    53 1   
    54    27    28 ar  
    55    27    54 1   
    56    28    29 1   
    57    29    30 1   
    58    30    31 1   
    59    30    55 1   
    60    30    56 1   
    61    31    57 1   
    62    31    58 1   
    63    31    59 1   
@<TRIPOS>SUBSTRUCTURE
     1 2E8         1 TEMP              0 ****  ****    0 ROOT
