@<TRIPOS>MOLECULE
molecule
   59    63     1     0     0
SMALL
bcc


@<TRIPOS>ATOM
      1 CAL          0.0000     0.0000     0.0000 c3         1 2E8      -0.074400
      2 CAN          1.5300     0.0000     0.0000 c3         1 2E8       0.165300
      3 NBD          2.0210     0.0000     1.3840 n3         1 2E8      -0.731600
      4 CAB          3.4830    -0.1390     1.4240 c3         1 2E8       0.153100
      5 CAO          1.5870     1.2060     2.1010 c3         1 2E8       0.165300
      6 CAM          0.0590     1.2420     2.1640 c3         1 2E8      -0.074400
      7 CBC         -0.5060     1.2410     0.7410 c3         1 2E8      -0.096700
      8 CAP         -2.0350     1.2150     0.7980 c3         1 2E8       0.085300
      9 NBE         -2.5220     2.4590     1.4000 na         1 2E8      -0.026800
     10 NAS         -2.8380     3.6270     0.6980 nc         1 2E8      -0.493100
     11 C4          -2.7440     2.6550     2.7300 ca         1 2E8       0.526800
     12 N3          -2.6180     1.8980     3.8200 nb         1 2E8      -0.797000
     13 C2          -2.9170     2.3750     5.0080 ca         1 2E8       0.745900
     14 N1          -3.3530     3.6090     5.1910 nb         1 2E8      -0.826000
     15 C6          -3.5120     4.4410     4.1660 ca         1 2E8       0.789200
     16 NAC         -3.9680     5.7300     4.3650 nv         1 2E8      -1.031500
     17 C5          -3.2050     3.9770     2.8770 ca         1 2E8      -0.523500
     18 CAX         -3.2450     4.5530     1.5340 cd         1 2E8       0.446500
     19 CAV         -3.6700     5.9280     1.1800 ca         1 2E8      -0.112900
     20 CAJ         -3.2190     6.9990     1.9300 ca         1 2E8      -0.083000
     21 CAE         -4.5240     6.1330     0.0830 ca         1 2E8      -0.091000
     22 CAG         -4.9270     7.3840    -0.2620 ca         1 2E8      -0.129000
     23 CAY         -4.4900     8.4930     0.4850 ca         1 2E8       0.008000
     24 CAI         -4.8940     9.7960     0.1470 ca         1 2E8      -0.167000
     25 CAZ         -3.6250     8.3000     1.5910 ca         1 2E8      -0.079000
     26 CAF         -3.1870     9.4120     2.3310 ca         1 2E8      -0.077000
     27 CAD         -3.5960    10.6600     1.9780 ca         1 2E8      -0.204000
     28 CAU         -4.4530    10.8540     0.8900 ca         1 2E8       0.149100
     29 OAT         -4.8460    12.1120     0.5620 os         1 2E8      -0.329900
     30 CAK         -4.3440    13.1800     1.3690 c3         1 2E8       0.135400
     31 CAA         -4.8910    14.5120     0.8510 c3         1 2E8      -0.092100
     32 H1          -0.3600    -0.8910     0.5000 hc         1 2E8       0.054450
     33 H2          -0.3600     0.0180    -1.0220 hc         1 2E8       0.054450
     34 H3           1.8890     0.8860    -0.5090 h1         1 2E8       0.033700
     35 H4           1.8890    -0.8860    -0.5090 h1         1 2E8       0.033700
     36 H6           3.8140    -0.1720     2.4550 h1         1 2E8       0.031367
     37 H7           3.7720    -1.0540     0.9220 h1         1 2E8       0.031367
     38 H8           3.9400     0.7070     0.9250 h1         1 2E8       0.031367
     39 H9           1.9460     2.0850     1.5790 h1         1 2E8       0.033700
     40 H10          1.9870     1.1900     3.1080 h1         1 2E8       0.033700
     41 H11         -0.2600     2.1420     2.6770 hc         1 2E8       0.054450
     42 H12         -0.3010     0.3700     2.6960 hc         1 2E8       0.054450
     43 H13         -0.1740     2.1310     0.2210 hc         1 2E8       0.063700
     44 H14         -2.3600     0.3730     1.3960 h1         1 2E8       0.071700
     45 H15         -2.4320     1.1210    -0.2050 h1         1 2E8       0.071700
     46 H16         -2.8020     1.7310     5.8710 h5         1 2E8       0.061100
     47 H17         -4.7100     6.0920     3.7990 hn         1 2E8       0.446800
     48 H18         -3.5870     6.2870     5.1040 hn         1 2E8       0.446800
     49 H19         -2.4640     6.8480     2.6920 ha         1 2E8       0.146000
     50 H20         -4.8640     5.2830    -0.4960 ha         1 2E8       0.143000
     51 H21         -5.5850     7.5260    -1.1100 ha         1 2E8       0.139000
     52 H22         -5.5570     9.9590    -0.6930 ha         1 2E8       0.149000
     53 H23         -2.5220     9.2770     3.1760 ha         1 2E8       0.134000
     54 H24         -3.2590    11.5150     2.5520 ha         1 2E8       0.136000
     55 H25         -4.6590    13.0350     2.3950 h1         1 2E8       0.034200
     56 H26         -3.2620    13.1910     1.3210 h1         1 2E8       0.034200
     57 H27         -5.9730    14.5010     0.8980 hc         1 2E8       0.048700
     58 H28         -4.5760    14.6570    -0.1750 hc         1 2E8       0.048700
     59 H29         -4.5110    15.3210     1.4630 hc         1 2E8       0.048700
@<TRIPOS>BOND
     1    27    26 ar  
     2    27    28 ar  
     3    26    25 ar  
     4    29    28 1   
     5    29    30 1   
     6    28    24 ar  
     7    31    30 1   
     8    25    20 ar  
     9    25    23 ar  
    10    20    19 ar  
    11    24    23 ar  
    12    23    22 ar  
    13    16    15 1   
    14    19    18 1   
    15    19    21 ar  
    16    15    14 ar  
    17    15    17 ar  
    18    14    13 ar  
    19    18    17 1   
    20    18    10 2   
    21    17    11 ar  
    22    22    21 ar  
    23    10     9 1   
    24    13    12 ar  
    25    11    12 ar  
    26    11     9 1   
    27     9     8 1   
    28     8     7 1   
    29     7     1 1   
    30     7     6 1   
    31     1     2 1   
    32     6     5 1   
    33     2     3 1   
    34     5     3 1   
    35     3     4 1   
    36     1    32 1   
    37     1    33 1   
    38     2    34 1   
    39     2    35 1   
    40     4    36 1   
    41     4    37 1   
    42     4    38 1   
    43     5    39 1   
    44     5    40 1   
    45     6    41 1   
    46     6    42 1   
    47     7    43 1   
    48     8    44 1   
    49     8    45 1   
    50    13    46 1   
    51    16    47 1   
    52    16    48 1   
    53    20    49 1   
    54    21    50 1   
    55    22    51 1   
    56    24    52 1   
    57    26    53 1   
    58    27    54 1   
    59    30    55 1   
    60    30    56 1   
    61    31    57 1   
    62    31    58 1   
    63    31    59 1   
@<TRIPOS>SUBSTRUCTURE
     1 2E8         1 TEMP              0 ****  ****    0 ROOT
