@<TRIPOS>MOLECULE
2E9
   47    48     1     0     0
SMALL
bcc


@<TRIPOS>ATOM
      1 O1           0.0000     0.0000     0.0000 o          1 2E9      -0.695100
      2 C13          1.2160     0.0000     0.0000 c          1 2E9       0.568100
      3 N2           1.8900     0.0000     1.1670 ns         1 2E9      -0.042100
      4 C14          1.1890     0.1000     2.3840 cc         1 2E9      -0.080400
      5 C17         -0.0850    -0.4210     2.5590 cc         1 2E9      -0.122000
      6 C16         -0.6050    -0.2390     3.7740 cd         1 2E9       0.014900
      7 S            0.5420     0.6310     4.7850 ss         1 2E9      -0.281800
      8 C15          1.7020     0.6990     3.4650 cd         1 2E9      -0.060100
      9 N1           1.8900    -0.0050    -1.1670 ns         1 2E9      -0.217900
     10 C12          1.1580    -0.0100    -2.4360 c3         1 2E9       0.066000
     11 C11          2.1530    -0.0150    -3.5990 c3         1 2E9      -0.044400
     12 C10          1.3880    -0.0210    -4.9240 c3         1 2E9       0.149800
     13 N            2.3420    -0.0260    -6.0400 n7         1 2E9      -0.574200
     14 C9           1.6430    -0.0320    -7.3320 c3         1 2E9       0.215100
     15 C5           2.6530    -0.0360    -8.4500 ca         1 2E9      -0.129300
     16 C4           3.2730    -1.2200    -8.8210 ca         1 2E9       0.154100
     17 O            2.9710    -2.3780    -8.1750 oh         1 2E9      -0.487100
     18 C6           2.9570     1.1380    -9.1120 ca         1 2E9      -0.081000
     19 C7           3.8840     1.1350   -10.1390 ca         1 2E9      -0.049600
     20 Cl           4.2640     2.6110   -10.9680 cl         1 2E9      -0.026400
     21 C8           4.5080    -0.0450   -10.5070 ca         1 2E9      -0.074000
     22 C3           4.2020    -1.2220    -9.8510 ca         1 2E9      -0.107300
     23 C2           4.8770    -2.5060   -10.2560 c3         1 2E9       0.073100
     24 C1           4.0050    -3.2470   -11.2350 c2         1 2E9      -0.151200
     25 C            4.4850    -3.6040   -12.4000 c2         1 2E9      -0.163000
     26 H1           2.8860    -0.0890     1.1700 hn         1 2E9       0.160500
     27 H2          -0.6170    -0.9360     1.7690 ha         1 2E9       0.163000
     28 H3          -1.5850    -0.5760     4.0900 h4         1 2E9       0.148000
     29 H4           2.6800     1.1610     3.5180 h4         1 2E9       0.150000
     30 H5           2.8910    -0.0050    -1.1670 hn         1 2E9       0.168500
     31 H6           0.5350     0.8740    -2.4980 h1         1 2E9       0.026700
     32 H7           0.5350    -0.8950    -2.4900 h1         1 2E9       0.026700
     33 H8           2.7760     0.8690    -3.5450 hc         1 2E9       0.022700
     34 H9           2.7760    -0.9000    -3.5370 hc         1 2E9       0.022700
     35 H10          0.7660    -0.9060    -4.9770 h1         1 2E9       0.009700
     36 H11          0.7650     0.8630    -4.9850 h1         1 2E9       0.009700
     37 H12          2.9280     0.7840    -5.9820 hn         1 2E9       0.254800
     38 H14          1.0210     0.8510    -7.4100 h1         1 2E9       0.008700
     39 H15          1.0230    -0.9180    -7.4020 h1         1 2E9       0.008700
     40 H16          2.1910    -2.7530    -8.5500 ho         1 2E9       0.402000
     41 H17          2.4610     2.0600    -8.8340 ha         1 2E9       0.116000
     42 H18          5.2330    -0.0460   -11.3110 ha         1 2E9       0.119000
     43 H19          5.0370    -3.1220    -9.3780 hc         1 2E9       0.030200
     44 H20          5.8310    -2.2830   -10.7190 hc         1 2E9       0.030200
     45 H21          2.9800    -3.4840   -10.9760 ha         1 2E9       0.096000
     46 H22          5.5100    -3.3670   -12.6590 ha         1 2E9       0.085500
     47 H23          3.8570    -4.1370   -13.1040 ha         1 2E9       0.085500
@<TRIPOS>BOND
     1     1     2 2   
     2     2     3 1   
     3     2     9 1   
     4     3     4 1   
     5     3    26 1   
     6     4     5 1   
     7     4     8 2   
     8     5     6 2   
     9     5    27 1   
    10     6     7 1   
    11     6    28 1   
    12     7     8 1   
    13     8    29 1   
    14     9    10 1   
    15     9    30 1   
    16    10    11 1   
    17    10    31 1   
    18    10    32 1   
    19    11    12 1   
    20    11    33 1   
    21    11    34 1   
    22    12    13 1   
    23    12    35 1   
    24    12    36 1   
    25    13    14 1   
    26    13    37 1   
    27    14    15 1   
    28    14    38 1   
    29    14    39 1   
    30    15    16 ar  
    31    15    18 ar  
    32    16    17 1   
    33    16    22 ar  
    34    17    40 1   
    35    18    19 ar  
    36    18    41 1   
    37    19    20 1   
    38    19    21 ar  
    39    21    22 ar  
    40    21    42 1   
    41    22    23 1   
    42    23    24 1   
    43    23    43 1   
    44    23    44 1   
    45    24    25 2   
    46    24    45 1   
    47    25    46 1   
    48    25    47 1   
@<TRIPOS>SUBSTRUCTURE
     1 2E9         1 TEMP              0 ****  ****    0 ROOT
