@<TRIPOS>MOLECULE
molecule
   53    57     1     0     0
SMALL
bcc


@<TRIPOS>ATOM
      1 C1           0.0000     0.0000     0.0000 cp         1 2EA      -0.026000
      2 C2           1.3830     0.0000     0.0000 ca         1 2EA      -0.098000
      3 C3           2.0670     0.0000     1.2210 ca         1 2EA      -0.018000
      4 C4           1.3350    -0.0090     2.4380 ca         1 2EA      -0.163300
      5 C5          -0.0690    -0.0140     2.4030 ca         1 2EA      -0.095000
      6 C6          -0.7160    -0.0100     1.2090 ca         1 2EA      -0.144000
      7 C7           3.4730     0.0040     1.2900 ca         1 2EA      -0.240300
      8 C8           4.0680    -0.0020     2.5160 ca         1 2EA       0.429200
      9 N1           3.3600    -0.0110     3.6360 nb         1 2EA      -0.679000
     10 C9           2.0470    -0.0150     3.6480 ca         1 2EA       0.450200
     11 C10         -5.6680    -2.7890   -10.9770 ca         1 2EA      -0.116000
     12 C11         -5.4210    -3.8570   -10.1400 ca         1 2EA      -0.052000
     13 C12         -5.0890    -3.6330    -8.8000 ca         1 2EA       0.091400
     14 C13         -5.0120    -2.3130    -8.3390 ca         1 2EA      -0.140300
     15 C14         -5.2600    -1.2590    -9.1780 ca         1 2EA      -0.106000
     16 C15         -5.5880    -1.4920   -10.5030 ca         1 2EA      -0.094000
     17 N2          -4.8040    -4.5010    -7.7830 ne         1 2EA      -0.491100
     18 C16         -4.5390    -3.9270    -6.6640 c2         1 2EA       0.350200
     19 C17         -4.6410    -2.4310    -6.8790 c3         1 2EA      -0.135700
     20 C18         -2.0270     0.0710    -3.6900 ca         1 2EA       0.332200
     21 N3          -0.9360     0.7880    -3.5030 nb         1 2EA      -0.640000
     22 C19         -0.2860     0.7810    -2.3560 ca         1 2EA       0.420200
     23 C20         -0.7360     0.0050    -1.2890 cp         1 2EA      -0.107300
     24 C21         -1.8900    -0.7640    -1.4490 ca         1 2EA      -0.098000
     25 C22         -2.5390    -0.7280    -2.6780 ca         1 2EA      -0.043200
     26 O1          -3.6640    -1.4620    -2.8830 os         1 2EA      -0.326900
     27 C24         -4.0860    -1.2070    -4.2240 c3         1 2EA       0.091400
     28 C23         -5.3540    -2.0070    -4.5220 c3         1 2EA       0.100500
     29 C25         -5.7360    -1.8310    -5.9930 c3         1 2EA      -0.079400
     30 N4          -6.4500    -1.5220    -3.6710 nz         1 2EA      -0.807600
     31 H2           2.0200    -0.1840    -0.8570 ha         1 2EA       0.148000
     32 H5          -0.7000    -0.0200     3.2840 ha         1 2EA       0.142000
     33 H6          -1.7630     0.1790     1.4130 ha         1 2EA       0.136000
     34 H7           4.0700     0.0110     0.3860 ha         1 2EA       0.145000
     35 H8           5.1500     0.0010     2.5760 h4         1 2EA       0.031100
     36 H9           1.5140    -0.0220     4.5910 h4         1 2EA       0.033100
     37 H14         -5.1980    -0.2440    -8.8060 ha         1 2EA       0.130000
     38 H15         -5.7840    -0.6590   -11.1680 ha         1 2EA       0.151000
     39 H16         -3.7700    -4.3310    -6.0180 h4         1 2EA       0.066800
     40 H17         -3.6860    -1.9550    -6.6910 hc         1 2EA       0.089700
     41 H18         -2.5290     0.1050    -4.6490 h4         1 2EA       0.016100
     42 H19          0.6070     1.3830    -2.2420 h4         1 2EA       0.049100
     43 H21         -2.2660    -1.3790    -0.6400 ha         1 2EA       0.161000
     44 H241        -3.3020    -1.5020    -4.9110 h1         1 2EA       0.082700
     45 H242        -4.2900    -0.1490    -4.3420 h1         1 2EA       0.082700
     46 H23         -5.1760    -3.0560    -4.3180 hx         1 2EA       0.135700
     47 H251        -6.6740    -2.3360    -6.1860 hc         1 2EA       0.072700
     48 H252        -5.8420    -0.7760    -6.2150 hc         1 2EA       0.072700
     49 HN41        -6.5440    -0.5320    -3.7790 hn         1 2EA       0.458133
     50 HN42        -7.3040    -1.9700    -3.9400 hn         1 2EA       0.458133
     51 H10         -5.9240    -2.9680   -12.0150 ha         1 2EA       0.155000
     52 H43         -6.2480    -1.7340    -2.7140 hn         1 2EA       0.458133
     53 H11         -5.4850    -4.8690   -10.5200 ha         1 2EA       0.159000
@<TRIPOS>BOND
     1     1     2 ar  
     2     1     6 ar  
     3     1    23 1   
     4     2     3 ar  
     5     2    31 1   
     6     3     4 ar  
     7     3     7 ar  
     8     4     5 ar  
     9     4    10 ar  
    10     5     6 ar  
    11     5    32 1   
    12     6    33 1   
    13     7     8 ar  
    14     7    34 1   
    15     8     9 ar  
    16     8    35 1   
    17     9    10 ar  
    18    10    36 1   
    19    11    12 ar  
    20    11    16 ar  
    21    11    51 1   
    22    12    13 ar  
    23    12    53 1   
    24    13    14 ar  
    25    13    17 1   
    26    14    15 ar  
    27    14    19 1   
    28    15    16 ar  
    29    15    37 1   
    30    16    38 1   
    31    17    18 2   
    32    18    19 1   
    33    18    39 1   
    34    19    29 1   
    35    19    40 1   
    36    20    21 ar  
    37    20    25 ar  
    38    20    41 1   
    39    21    22 ar  
    40    22    23 ar  
    41    22    42 1   
    42    23    24 ar  
    43    24    25 ar  
    44    24    43 1   
    45    25    26 1   
    46    26    27 1   
    47    27    28 1   
    48    27    44 1   
    49    27    45 1   
    50    28    29 1   
    51    28    30 1   
    52    28    46 1   
    53    29    47 1   
    54    29    48 1   
    55    30    49 1   
    56    30    50 1   
    57    52    30 1   
@<TRIPOS>SUBSTRUCTURE
     1 2EA         1 TEMP              0 ****  ****    0 ROOT
