@<TRIPOS>MOLECULE
molecule
   40    41     1     0     0
SMALL
bcc


@<TRIPOS>ATOM
      1 I            0.0000     0.0000     0.0000 i          1 2EB      -0.147900
      2 C14          2.0960     0.0000     0.0000 ca         1 2EB      -0.004100
      3 C            2.7900     0.0000     1.2010 ca         1 2EB       0.171100
      4 O            2.1110    -0.0010     2.3790 oh         1 2EB      -0.489100
      5 C13          2.7870    -0.0060    -1.1970 ca         1 2EB      -0.068000
      6 C12          4.1700    -0.0050    -1.1970 ca         1 2EB       0.004400
      7 Cl           5.0370    -0.0120    -2.7010 cl         1 2EB      -0.097400
      8 C11          4.8640     0.0010     0.0010 ca         1 2EB      -0.086000
      9 C1           4.1760     0.0000     1.1990 ca         1 2EB      -0.101300
     10 C2           4.9330     0.0070     2.5020 c3         1 2EB       0.217100
     11 N            4.9780    -1.3550     3.0500 n7         1 2EB      -0.807200
     12 C3           5.7090    -1.3880     4.3230 c3         1 2EB       0.161800
     13 C4           5.7340    -2.8190     4.8610 c3         1 2EB      -0.103400
     14 C5           6.4970    -2.8530     6.1870 c3         1 2EB       0.130000
     15 N1           6.5210    -4.2240     6.7020 ns         1 2EB      -0.602900
     16 C6           7.1410    -4.4950     7.8680 c          1 2EB       0.784100
     17 O1           7.6810    -3.6020     8.4910 o          1 2EB      -0.647100
     18 N2           7.1630    -5.7570     8.3420 ns         1 2EB      -0.484100
     19 C7           7.8960    -6.0590     9.5050 cc         1 2EB       0.059600
     20 C10          8.0660    -5.1490    10.5400 cc         1 2EB      -0.147000
     21 C9           8.7870    -5.5970    11.5690 cd         1 2EB      -0.066100
     22 S            9.2970    -7.2510    11.2590 ss         1 2EB      -0.163800
     23 C8           8.4770    -7.2470     9.7040 cd         1 2EB      -0.132100
     24 H1           1.5190     0.7320     2.4010 ho         1 2EB       0.426000
     25 H2           2.2450     0.0030    -2.1350 ha         1 2EB       0.158000
     26 H3           5.9470     0.0010    -0.0010 ha         1 2EB       0.150000
     27 H4           5.9420     0.3610     2.3310 h1         1 2EB       0.044200
     28 H5           4.4340     0.6630     3.2050 h1         1 2EB       0.044200
     29 H6           5.4250    -1.9640     2.3930 hn         1 2EB       0.353800
     30 H8           6.7240    -1.0430     4.1660 h1         1 2EB       0.036200
     31 H9           5.2160    -0.7420     5.0390 h1         1 2EB       0.036200
     32 H10          4.7190    -3.1630     5.0190 hc         1 2EB       0.053700
     33 H11          6.2270    -3.4650     4.1440 hc         1 2EB       0.053700
     34 H12          6.0040    -2.2060     6.9030 h1         1 2EB       0.054200
     35 H13          7.5120    -2.5090     6.0290 h1         1 2EB       0.054200
     36 H14          6.0540    -4.9540     6.2020 hn         1 2EB       0.308500
     37 H15          6.6340    -6.4730     7.8830 hn         1 2EB       0.318500
     38 H16          7.6460    -4.1500    10.5130 ha         1 2EB       0.185000
     39 H17          9.0230    -5.0280    12.4600 h4         1 2EB       0.173000
     40 H18          8.4500    -8.0790     9.0110 h4         1 2EB       0.169000
@<TRIPOS>BOND
     1     1     2 1   
     2     7     6 1   
     3    10     9 1   
     4    10    11 1   
     5     8     9 ar  
     6     8     6 ar  
     7     9     3 ar  
     8     6     5 ar  
     9     2     3 ar  
    10     2     5 ar  
    11     3     4 1   
    12    11    12 1   
    13    12    13 1   
    14    13    14 1   
    15    14    15 1   
    16    15    16 1   
    17    16    17 2   
    18    16    18 1   
    19    18    19 1   
    20    19    23 2   
    21    19    20 1   
    22    23    22 1   
    23    20    21 2   
    24    21    22 1   
    25     4    24 1   
    26     5    25 1   
    27     8    26 1   
    28    10    27 1   
    29    10    28 1   
    30    11    29 1   
    31    12    30 1   
    32    12    31 1   
    33    13    32 1   
    34    13    33 1   
    35    14    34 1   
    36    14    35 1   
    37    15    36 1   
    38    18    37 1   
    39    20    38 1   
    40    21    39 1   
    41    23    40 1   
@<TRIPOS>SUBSTRUCTURE
     1 2EB         1 TEMP              0 ****  ****    0 ROOT
