@<TRIPOS>MOLECULE
2EB
   40    41     1     0     0
SMALL
bcc


@<TRIPOS>ATOM
      1 I            0.0000     0.0000     0.0000 i          1 2EB      -0.258900
      2 C14          2.0960     0.0000     0.0000 ca         1 2EB       0.124900
      3 C            2.7900     0.0000     1.2010 ca         1 2EB       0.182100
      4 O            2.1110    -0.0010     2.3790 oh         1 2EB      -0.470100
      5 C13          2.7870    -0.0060    -1.1970 ca         1 2EB      -0.054000
      6 C12          4.1700    -0.0050    -1.1970 ca         1 2EB      -0.060600
      7 Cl           5.0370    -0.0120    -2.7010 cl         1 2EB      -0.016400
      8 C11          4.8640     0.0010     0.0010 ca         1 2EB      -0.067000
      9 C1           4.1760     0.0000     1.1990 ca         1 2EB      -0.119300
     10 C2           4.9330     0.0070     2.5020 c3         1 2EB       0.215100
     11 N            4.9780    -1.3550     3.0500 n7         1 2EB      -0.574200
     12 C3           5.7090    -1.3880     4.3230 c3         1 2EB       0.149800
     13 C4           5.7340    -2.8190     4.8610 c3         1 2EB      -0.044400
     14 C5           6.4970    -2.8530     6.1870 c3         1 2EB       0.066000
     15 N1           6.5210    -4.2240     6.7020 ns         1 2EB      -0.217900
     16 C6           7.1410    -4.4950     7.8680 c          1 2EB       0.568100
     17 O1           7.6810    -3.6020     8.4910 o          1 2EB      -0.694100
     18 N2           7.1630    -5.7570     8.3420 ns         1 2EB      -0.043100
     19 C7           7.8960    -6.0590     9.5050 cc         1 2EB      -0.080400
     20 C10          8.0660    -5.1490    10.5400 cc         1 2EB      -0.122000
     21 C9           8.7870    -5.5970    11.5690 cd         1 2EB       0.014900
     22 S            9.2970    -7.2510    11.2590 ss         1 2EB      -0.280800
     23 C8           8.4770    -7.2470     9.7040 cd         1 2EB      -0.059100
     24 H1           1.5190     0.7320     2.4010 ho         1 2EB       0.407000
     25 H2           2.2450     0.0030    -2.1350 ha         1 2EB       0.128000
     26 H3           5.9470     0.0010    -0.0010 ha         1 2EB       0.118000
     27 H4           5.9420     0.3610     2.3310 h1         1 2EB       0.013700
     28 H5           4.4340     0.6630     3.2050 h1         1 2EB       0.013700
     29 H6           5.4250    -1.9640     2.3930 hn         1 2EB       0.252800
     30 H8           6.7240    -1.0430     4.1660 h1         1 2EB       0.009700
     31 H9           5.2160    -0.7420     5.0390 h1         1 2EB       0.009700
     32 H10          4.7190    -3.1630     5.0190 hc         1 2EB       0.022700
     33 H11          6.2270    -3.4650     4.1440 hc         1 2EB       0.022700
     34 H12          6.0040    -2.2060     6.9030 h1         1 2EB       0.026700
     35 H13          7.5120    -2.5090     6.0290 h1         1 2EB       0.026700
     36 H14          6.0540    -4.9540     6.2020 hn         1 2EB       0.168500
     37 H15          6.6340    -6.4730     7.8830 hn         1 2EB       0.160500
     38 H16          7.6460    -4.1500    10.5130 ha         1 2EB       0.163000
     39 H17          9.0230    -5.0280    12.4600 h4         1 2EB       0.148000
     40 H18          8.4500    -8.0790     9.0110 h4         1 2EB       0.150000
@<TRIPOS>BOND
     1     1     2 1   
     2     2     3 ar  
     3     2     5 ar  
     4     3     4 1   
     5     3     9 ar  
     6     4    24 1   
     7     5     6 ar  
     8     5    25 1   
     9     6     7 1   
    10     6     8 ar  
    11     8     9 ar  
    12     8    26 1   
    13     9    10 1   
    14    10    11 1   
    15    10    27 1   
    16    10    28 1   
    17    11    12 1   
    18    11    29 1   
    19    12    13 1   
    20    12    30 1   
    21    12    31 1   
    22    13    14 1   
    23    13    32 1   
    24    13    33 1   
    25    14    15 1   
    26    14    34 1   
    27    14    35 1   
    28    15    16 1   
    29    15    36 1   
    30    16    17 2   
    31    16    18 1   
    32    18    19 1   
    33    18    37 1   
    34    19    20 1   
    35    19    23 2   
    36    20    21 2   
    37    20    38 1   
    38    21    22 1   
    39    21    39 1   
    40    22    23 1   
    41    23    40 1   
@<TRIPOS>SUBSTRUCTURE
     1 2EB         1 TEMP              0 ****  ****    0 ROOT
