@<TRIPOS>MOLECULE
molecule
   21    22     1     0     0
SMALL
bcc


@<TRIPOS>ATOM
      1 N6           0.0000     0.0000     0.0000 nv         1 2EC      -0.987500
      2 C6           1.3840     0.0000     0.0000 ca         1 2EC       0.789200
      3 C5           2.1030     0.0000     1.2070 ca         1 2EC      -0.213200
      4 N7           1.7630    -0.0010     2.5190 nc         1 2EC      -0.585100
      5 C4           3.5060     0.0010     1.1430 ca         1 2EC       0.471800
      6 N9           3.9450     0.0010     2.4430 na         1 2EC      -0.249000
      7 C8           2.8430    -0.0000     3.2460 cd         1 2EC       0.412700
      8 C9M          5.3400     0.0010     2.8880 c3         1 2EC       0.049300
      9 N3           4.0980     0.0010    -0.0470 nb         1 2EC      -0.796000
     10 C50          5.8630     1.4390     2.9240 c3         1 2EC      -0.116100
     11 C2           3.3840     0.0010    -1.1520 ca         1 2EC       0.740900
     12 N1           2.0630    -0.0040    -1.1420 nb         1 2EC      -0.835000
     13 H61N        -0.5000    -0.2080    -0.8410 hn         1 2EC       0.449800
     14 H62N        -0.5000     0.1970     0.8440 hn         1 2EC       0.449800
     15 H8           2.8630    -0.0000     4.3290 h5         1 2EC       0.077800
     16 H9M1         5.4030    -0.4310     3.8790 h1         1 2EC       0.065700
     17 H9M2         5.9380    -0.5840     2.2000 h1         1 2EC       0.065700
     18 H501         6.5760     1.5440     3.7330 hc         1 2EC       0.050033
     19 H502         5.0360     2.1210     3.0810 hc         1 2EC       0.050033
     20 H503         6.3480     1.6700     1.9830 hc         1 2EC       0.050033
     21 H2           3.8980    -0.0030    -2.1050 h5         1 2EC       0.060100
@<TRIPOS>BOND
     1     1     2 1   
     2     2     3 ar  
     3     2    12 ar  
     4     3     4 1   
     5     3     5 ar  
     6     4     7 2   
     7     5     6 1   
     8     5     9 ar  
     9     6     7 1   
    10     6     8 1   
    11     8    10 1   
    12     9    11 ar  
    13    11    12 ar  
    14     1    13 1   
    15     1    14 1   
    16     7    15 1   
    17     8    16 1   
    18     8    17 1   
    19    10    18 1   
    20    10    19 1   
    21    10    20 1   
    22    11    21 1   
@<TRIPOS>SUBSTRUCTURE
     1 2EC         1 TEMP              0 ****  ****    0 ROOT
