@<TRIPOS>MOLECULE
2ED
   63    64     1     0     0
SMALL
bcc


@<TRIPOS>ATOM
      1 O2           0.0000     0.0000     0.0000 o          1 2ED      -0.431000
      2 O3           1.9840    -2.1770    -3.0690 oh         1 2ED      -0.307000
      3 O1           3.1670    -0.2240    -3.7520 oh         1 2ED      -0.279000
      4 C1           1.1530     0.0020    -2.4360 c3         1 2ED      -0.101000
      5 C2           2.0300     0.6130    -3.5320 DU         1 2ED       0.190000
      6 C3           2.4890     1.9820    -3.1020 c2         1 2ED      -0.150000
      7 C4           3.7670     2.2680    -3.0820 c2         1 2ED      -0.088000
      8 C5           4.2260     3.6370    -2.6530 DU         1 2ED       0.012000
      9 C6           5.2340     3.5020    -1.5090 c3         1 2ED      -0.137000
     10 C18          1.2120     0.0000     0.0000 c2         1 2ED       0.212000
     11 C19          1.9660     0.0000     1.3050 c3         1 2ED      -0.133000
     12 N            1.8860     0.0010    -1.1680 ns         1 2ED       0.033000
     13 C            0.7900    -1.4350    -2.8160 c3         1 2ED       0.049000
     14 HO3          1.7630    -3.0750    -3.2530 ho         1 2ED       0.181000
     15 HO1          3.3150    -0.3160    -4.6790 ho         1 2ED       0.191000
     16 H1           0.2480     0.5880    -2.3300 h1         1 2ED       0.108000
     17 H2           1.4580     0.6940    -4.4480 ha         1 2ED       0.030000
     18 H3           2.4280     1.6530    -4.1320 DU         1 2ED      -0.004000
     19 H4           3.7310     3.1500    -3.7100 DU         1 2ED       0.026000
     20 H5           4.6950     4.1400    -3.4900 ha         1 2ED       0.058500
     21 H5A          3.3740     4.2150    -2.3160 ha         1 2ED       0.058500
     22 H6           6.0870     2.9240    -1.8460 hc         1 2ED       0.063500
     23 H6A          4.7650     2.9990    -0.6720 hc         1 2ED       0.063500
     24 H19          1.3650    -0.4780     2.0690 hc         1 2ED       0.060000
     25 H19A         2.8960    -0.5420     1.1850 hc         1 2ED       0.060000
     26 H19B         2.1780     1.0210     1.5990 hc         1 2ED       0.060000
     27 HN           2.8860    -0.0480    -1.1680 hn         1 2ED       0.106000
     28 H            0.2440    -1.8970    -2.0020 h1         1 2ED       0.035500
     29 HA           0.1730    -1.4290    -3.7060 h1         1 2ED       0.035500
     30 C10          5.7000     4.8930    -1.0740 c3         1 2ED      -0.111000
     31 C11          6.7080     4.7590     0.0700 c3         1 2ED      -0.107000
     32 C12          7.1740     6.1480     0.5060 c3         1 2ED      -0.108000
     33 C13          8.1810     6.0130     1.6500 c3         1 2ED      -0.108000
     34 C14          8.6470     7.4050     2.0860 c3         1 2ED      -0.108000
     35 C15          9.6550     7.2690     3.2290 c3         1 2ED      -0.108000
     36 C16         10.1210     8.6600     3.6640 c3         1 2ED      -0.108000
     37 C17         11.1280     8.5250     4.8080 c3         1 2ED      -0.108000
     38 C181        11.5950     9.9160     5.2440 c3         1 2ED      -0.109000
     39 C191        12.6020     9.7810     6.3870 c3         1 2ED      -0.107000
     40 C20         13.0680    11.1710     6.8230 c3         1 2ED      -0.112000
     41 H17          6.1700     5.3960    -1.9110 hc         1 2ED       0.052500
     42 H18          4.8480     5.4710    -0.7380 hc         1 2ED       0.052500
     43 H191         6.2380     4.2560     0.9070 hc         1 2ED       0.055000
     44 H20          7.5600     4.1810    -0.2660 hc         1 2ED       0.055000
     45 H21          6.3210     6.7260     0.8420 hc         1 2ED       0.053500
     46 H22          7.6430     6.6510    -0.3310 hc         1 2ED       0.053500
     47 H23          9.0340     5.4360     1.3140 hc         1 2ED       0.054000
     48 H24          7.7120     5.5110     2.4870 hc         1 2ED       0.054000
     49 H25          9.1160     7.9070     1.2480 hc         1 2ED       0.054000
     50 H26          7.7950     7.9820     2.4220 hc         1 2ED       0.054000
     51 H27          9.1860     6.7670     4.0660 hc         1 2ED       0.054000
     52 H28         10.5080     6.6920     2.8930 hc         1 2ED       0.054000
     53 H29          9.2680     9.2380     4.0000 hc         1 2ED       0.054000
     54 H30         10.5900     9.1620     2.8270 hc         1 2ED       0.054000
     55 H31         11.9800     7.9470     4.4720 hc         1 2ED       0.054000
     56 H32         10.6590     8.0230     5.6450 hc         1 2ED       0.054000
     57 H33         10.7430    10.4940     5.5800 hc         1 2ED       0.054000
     58 H34         12.0650    10.4180     4.4060 hc         1 2ED       0.054000
     59 H35         12.1330     9.2780     7.2240 hc         1 2ED       0.051000
     60 H36         13.4550     9.2040     6.0510 hc         1 2ED       0.051000
     61 H37         13.7760    11.0760     7.6380 hc         1 2ED       0.039333
     62 H38         13.5430    11.6720     5.9880 hc         1 2ED       0.039333
     63 H39         12.2140    11.7510     7.1530 hc         1 2ED       0.039333
@<TRIPOS>BOND
     1     1    10 1   
     2     2    13 1   
     3     2    14 1   
     4     3     5 1   
     5     3    15 1   
     6     4     5 1   
     7     4    12 1   
     8     4    13 1   
     9     4    16 1   
    10     5     6 1   
    11     5    17 1   
    12     5    18 1   
    13     6     7 1   
    14     6    18 1   
    15     7     8 1   
    16     7    19 1   
    17     8     9 1   
    18     8    19 1   
    19     8    20 1   
    20     8    21 1   
    21     9    22 1   
    22     9    23 1   
    23     9    30 1   
    24    10    11 1   
    25    10    12 1   
    26    11    24 1   
    27    11    25 1   
    28    11    26 1   
    29    12    27 1   
    30    13    28 1   
    31    13    29 1   
    32    30    31 1   
    33    30    41 1   
    34    30    42 1   
    35    31    32 1   
    36    31    43 1   
    37    31    44 1   
    38    32    33 1   
    39    32    45 1   
    40    32    46 1   
    41    33    34 1   
    42    33    47 1   
    43    33    48 1   
    44    34    35 1   
    45    34    49 1   
    46    34    50 1   
    47    35    36 1   
    48    35    51 1   
    49    35    52 1   
    50    36    37 1   
    51    36    53 1   
    52    36    54 1   
    53    37    38 1   
    54    37    55 1   
    55    37    56 1   
    56    38    39 1   
    57    38    57 1   
    58    38    58 1   
    59    39    40 1   
    60    39    59 1   
    61    39    60 1   
    62    40    61 1   
    63    40    62 1   
    64    40    63 1   
@<TRIPOS>SUBSTRUCTURE
     1 2ED         1 TEMP              0 ****  ****    0 ROOT
