@<TRIPOS>MOLECULE
molecule
   63    62     1     0     0
SMALL
bcc


@<TRIPOS>ATOM
      1 O2           0.0000     0.0000     0.0000 o          1 2ED      -0.627100
      2 O3           1.9840    -2.1770    -3.0690 oh         1 2ED      -0.591800
      3 O1           3.1670    -0.2240    -3.7520 oh         1 2ED      -0.582800
      4 C1           1.1530     0.0020    -2.4360 c3         1 2ED       0.127700
      5 C2           2.0300     0.6130    -3.5320 c3         1 2ED       0.172300
      6 C3           2.4890     1.9820    -3.1020 c2         1 2ED      -0.214200
      7 C4           3.7670     2.2680    -3.0820 c2         1 2ED      -0.155200
      8 C5           4.2260     3.6370    -2.6530 c3         1 2ED      -0.051200
      9 C6           5.2340     3.5020    -1.5090 c3         1 2ED      -0.076400
     10 C18          1.2120     0.0000     0.0000 c          1 2ED       0.655100
     11 C19          1.9660     0.0000     1.3050 c3         1 2ED      -0.170100
     12 N            1.8860     0.0010    -1.1680 ns         1 2ED      -0.565900
     13 C            0.7900    -1.4350    -2.8160 c3         1 2ED       0.120400
     14 HO3          1.7610    -3.0680    -3.2820 ho         1 2ED       0.393000
     15 HO1          3.3140    -0.3170    -4.6790 ho         1 2ED       0.402000
     16 H1           0.2480     0.5880    -2.3300 h1         1 2ED       0.088700
     17 H2           1.4580     0.6940    -4.4480 h1         1 2ED       0.044700
     18 H3           1.7620     2.7310    -2.8100 ha         1 2ED       0.132000
     19 H4           4.4940     1.5190    -3.3740 ha         1 2ED       0.141000
     20 H5           4.6950     4.1400    -3.4900 hc         1 2ED       0.047200
     21 H5A          3.3740     4.2150    -2.3160 hc         1 2ED       0.047200
     22 H6           4.7650     2.9990    -0.6720 hc         1 2ED       0.043200
     23 H6A          6.0870     2.9240    -1.8460 hc         1 2ED       0.043200
     24 H19          2.5140     0.9290     1.4050 hc         1 2ED       0.060033
     25 H19A         2.6590    -0.8320     1.3210 hc         1 2ED       0.060033
     26 H19B         1.2660    -0.0960     2.1260 hc         1 2ED       0.060033
     27 HN           2.8860    -0.0460    -1.1680 hn         1 2ED       0.333500
     28 H            0.2440    -1.8970    -2.0020 h1         1 2ED       0.030200
     29 HA           0.1730    -1.4290    -3.7060 h1         1 2ED       0.030200
     30 C10          5.7000     4.8930    -1.0740 c3         1 2ED      -0.083400
     31 C11          6.7080     4.7590     0.0700 c3         1 2ED      -0.081400
     32 C12          7.1740     6.1480     0.5060 c3         1 2ED      -0.082400
     33 C13          8.1810     6.0130     1.6500 c3         1 2ED      -0.082400
     34 C14          8.6470     7.4050     2.0860 c3         1 2ED      -0.082400
     35 C15          9.6550     7.2690     3.2290 c3         1 2ED      -0.082400
     36 C16         10.1210     8.6600     3.6640 c3         1 2ED      -0.082400
     37 C17         11.1280     8.5250     4.8080 c3         1 2ED      -0.082400
     38 C181        11.5950     9.9160     5.2440 c3         1 2ED      -0.081400
     39 C191        12.6020     9.7810     6.3870 c3         1 2ED      -0.084400
     40 C20         13.0680    11.1710     6.8230 c3         1 2ED      -0.092100
     41 H17          6.1700     5.3960    -1.9110 hc         1 2ED       0.041700
     42 H18          4.8480     5.4710    -0.7380 hc         1 2ED       0.041700
     43 H191         7.5600     4.1810    -0.2660 hc         1 2ED       0.041200
     44 H20          6.2380     4.2560     0.9070 hc         1 2ED       0.041200
     45 H21          6.3210     6.7260     0.8420 hc         1 2ED       0.041200
     46 H22          7.6430     6.6510    -0.3310 hc         1 2ED       0.041200
     47 H23          7.7120     5.5110     2.4870 hc         1 2ED       0.040700
     48 H24          9.0340     5.4360     1.3140 hc         1 2ED       0.040700
     49 H25          7.7950     7.9820     2.4220 hc         1 2ED       0.041200
     50 H26          9.1160     7.9070     1.2480 hc         1 2ED       0.041200
     51 H27          9.1860     6.7670     4.0660 hc         1 2ED       0.040700
     52 H28         10.5080     6.6920     2.8930 hc         1 2ED       0.040700
     53 H29         10.5900     9.1620     2.8270 hc         1 2ED       0.040700
     54 H30          9.2680     9.2380     4.0000 hc         1 2ED       0.040700
     55 H31         11.9800     7.9470     4.4720 hc         1 2ED       0.040700
     56 H32         10.6590     8.0230     5.6450 hc         1 2ED       0.040700
     57 H33         10.7430    10.4940     5.5800 hc         1 2ED       0.040700
     58 H34         12.0650    10.4180     4.4060 hc         1 2ED       0.040700
     59 H35         13.4550     9.2040     6.0510 hc         1 2ED       0.039700
     60 H36         12.1330     9.2780     7.2240 hc         1 2ED       0.039700
     61 H37         13.8130    11.0740     7.6040 hc         1 2ED       0.032367
     62 H38         13.4980    11.6910     5.9760 hc         1 2ED       0.032367
     63 H39         12.2220    11.7340     7.2000 hc         1 2ED       0.032367
@<TRIPOS>BOND
     1     1    10 2   
     2     2    13 1   
     3     2    14 1   
     4     3     5 1   
     5     3    15 1   
     6     4     5 1   
     7     4    12 1   
     8     4    13 1   
     9     4    16 1   
    10     5     6 1   
    11     5    17 1   
    12     6     7 2   
    13     6    18 1   
    14     7     8 1   
    15     7    19 1   
    16     8     9 1   
    17     8    20 1   
    18     8    21 1   
    19     9    22 1   
    20     9    23 1   
    21    10    11 1   
    22    10    12 1   
    23    11    24 1   
    24    11    25 1   
    25    11    26 1   
    26    12    27 1   
    27    13    28 1   
    28    13    29 1   
    29     9    30 1   
    30    30    31 1   
    31    31    32 1   
    32    32    33 1   
    33    33    34 1   
    34    34    35 1   
    35    35    36 1   
    36    36    37 1   
    37    37    38 1   
    38    38    39 1   
    39    39    40 1   
    40    30    41 1   
    41    30    42 1   
    42    31    43 1   
    43    31    44 1   
    44    32    45 1   
    45    32    46 1   
    46    33    47 1   
    47    33    48 1   
    48    34    49 1   
    49    34    50 1   
    50    35    51 1   
    51    35    52 1   
    52    36    53 1   
    53    36    54 1   
    54    37    55 1   
    55    37    56 1   
    56    38    57 1   
    57    38    58 1   
    58    39    59 1   
    59    39    60 1   
    60    40    61 1   
    61    40    62 1   
    62    40    63 1   
@<TRIPOS>SUBSTRUCTURE
     1 2ED         1 TEMP              0 ****  ****    0 ROOT
