@<TRIPOS>MOLECULE
molecule
   60    62     1     0     0
SMALL
bcc


@<TRIPOS>ATOM
      1 Cl           0.0000     0.0000     0.0000 cl         1 2EE      -0.108400
      2 C5           1.7360     0.0000     0.0000 ca         1 2EE       0.021400
      3 C4           2.4260     0.0000     1.1990 ca         1 2EE      -0.105000
      4 C6           2.4270    -0.0060    -1.1990 ca         1 2EE      -0.114000
      5 C7           3.8090    -0.0070    -1.2000 ca         1 2EE      -0.099300
      6 C8           4.5030    -0.0020     0.0010 ca         1 2EE       0.139100
      7 O            5.8620    -0.0020     0.0010 os         1 2EE      -0.346900
      8 C9           6.5100    -1.2750     0.0630 c3         1 2EE       0.186700
      9 C10          7.9990    -1.0740     0.1730 ca         1 2EE      -0.091300
     10 C15          8.5930    -0.9710     1.4180 ca         1 2EE      -0.106000
     11 C14          9.9590    -0.7870     1.5190 ca         1 2EE      -0.133000
     12 C13         10.7330    -0.7080     0.3760 ca         1 2EE      -0.120000
     13 C12         10.1390    -0.8120    -0.8690 ca         1 2EE      -0.133000
     14 C11          8.7740    -1.0010    -0.9700 ca         1 2EE      -0.106000
     15 C3           3.8080    -0.0000     1.2010 ca         1 2EE      -0.091300
     16 C2           4.5600     0.0050     2.5080 c3         1 2EE       0.002100
     17 C1           4.9150     1.4230     2.8760 c2         1 2EE      -0.161200
     18 C            4.5260     1.9180     4.0260 c2         1 2EE      -0.226000
     19 C16          4.5610    -0.0150    -2.5060 c3         1 2EE       0.208100
     20 N            5.0120    -1.3810    -2.8030 n7         1 2EE      -0.822200
     21 C17          5.7510    -1.4260    -4.0720 c3         1 2EE       0.159800
     22 C18          6.2050    -2.8620    -4.3460 c3         1 2EE      -0.105400
     23 C19          6.9740    -2.9100    -5.6680 c3         1 2EE       0.130000
     24 N1           7.4070    -4.2840    -5.9300 ns         1 2EE      -0.602900
     25 C20          8.1080    -4.5680    -7.0460 c          1 2EE       0.784100
     26 O1           8.3800    -3.6830    -7.8360 o          1 2EE      -0.647100
     27 N2           8.5070    -5.8320    -7.2880 ns         1 2EE      -0.482100
     28 C21          9.3270    -6.1120    -8.3980 cc         1 2EE       0.058600
     29 C24          9.2580    -5.3870    -9.5810 cd         1 2EE      -0.146000
     30 C23         10.1040    -5.7830   -10.5330 cc         1 2EE      -0.065100
     31 S           11.0610    -7.1390    -9.9490 ss         1 2EE      -0.164800
     32 C22         10.2380    -7.0920    -8.3950 cd         1 2EE      -0.131100
     33 H1           1.8830     0.0010     2.1370 ha         1 2EE       0.149000
     34 H2           1.8850    -0.0090    -2.1360 ha         1 2EE       0.144000
     35 H3           6.2870    -1.8380    -0.8350 h1         1 2EE       0.047700
     36 H4           6.1540    -1.8200     0.9290 h1         1 2EE       0.047700
     37 H5           7.9870    -1.0330     2.3140 ha         1 2EE       0.132500
     38 H6          10.4230    -0.7060     2.4940 ha         1 2EE       0.130500
     39 H7          11.8030    -0.5620     0.4550 ha         1 2EE       0.130000
     40 H8          10.7450    -0.7520    -1.7650 ha         1 2EE       0.130500
     41 H9           8.3090    -1.0820    -1.9450 ha         1 2EE       0.132500
     42 H10          5.4660    -0.5790     2.4050 hc         1 2EE       0.055700
     43 H11          3.9380    -0.4250     3.2840 hc         1 2EE       0.055700
     44 H12          5.4930     2.0320     2.1920 ha         1 2EE       0.138000
     45 H13          4.7810     2.9360     4.2910 ha         1 2EE       0.112000
     46 H14          3.9490     1.3080     4.7100 ha         1 2EE       0.112000
     47 H15          5.4200     0.6410    -2.4320 h1         1 2EE       0.049700
     48 H16          3.9100     0.3310    -3.3000 h1         1 2EE       0.049700
     49 H17          4.2200    -1.9900    -2.8560 hn         1 2EE       0.354800
     50 H19          5.1080    -1.0910    -4.8760 h1         1 2EE       0.039200
     51 H20          6.6170    -0.7800    -4.0090 h1         1 2EE       0.039200
     52 H21          6.8480    -3.1970    -3.5420 hc         1 2EE       0.052200
     53 H22          5.3380    -3.5090    -4.4090 hc         1 2EE       0.052200
     54 H23          6.3310    -2.5740    -6.4720 h1         1 2EE       0.055200
     55 H24          7.8410    -2.2630    -5.6050 h1         1 2EE       0.055200
     56 H25          7.1690    -5.0150    -5.2900 hn         1 2EE       0.308500
     57 H26          8.2060    -6.5760    -6.6900 hn         1 2EE       0.317500
     58 H27          8.5680    -4.5640    -9.7210 ha         1 2EE       0.186000
     59 H28         10.1890    -5.3380   -11.5160 h4         1 2EE       0.173000
     60 H29         10.4350    -7.7580    -7.5630 h4         1 2EE       0.169000
@<TRIPOS>BOND
     1    31    30 1   
     2    31    32 1   
     3    30    29 2   
     4    29    28 1   
     5    32    28 2   
     6    28    27 1   
     7    27    25 1   
     8    26    25 2   
     9    25    24 1   
    10    24    23 1   
    11    23    22 1   
    12    22    21 1   
    13    21    20 1   
    14    20    19 1   
    15    14    13 ar  
    16    14     9 ar  
    17    13    12 ar  
    18    19     5 1   
    19     5     4 ar  
    20     5     6 ar  
    21     4     2 ar  
    22     2     1 1   
    23     2     3 ar  
    24     6    15 ar  
    25     6     7 1   
    26     9     8 1   
    27     9    10 ar  
    28     8     7 1   
    29    16    15 1   
    30    16    17 1   
    31    15     3 ar  
    32    12    11 ar  
    33    10    11 ar  
    34    17    18 2   
    35     3    33 1   
    36     4    34 1   
    37     8    35 1   
    38     8    36 1   
    39    10    37 1   
    40    11    38 1   
    41    12    39 1   
    42    13    40 1   
    43    14    41 1   
    44    16    42 1   
    45    16    43 1   
    46    17    44 1   
    47    18    45 1   
    48    18    46 1   
    49    19    47 1   
    50    19    48 1   
    51    20    49 1   
    52    21    50 1   
    53    21    51 1   
    54    22    52 1   
    55    22    53 1   
    56    23    54 1   
    57    23    55 1   
    58    24    56 1   
    59    27    57 1   
    60    29    58 1   
    61    30    59 1   
    62    32    60 1   
@<TRIPOS>SUBSTRUCTURE
     1 2EE         1 TEMP              0 ****  ****    0 ROOT
