@<TRIPOS>MOLECULE
2EE
   60    62     1     0     0
SMALL
bcc


@<TRIPOS>ATOM
      1 Cl           0.0000     0.0000     0.0000 cl         1 2EE      -0.026400
      2 C5           1.7360     0.0000     0.0000 ca         1 2EE      -0.043600
      3 C4           2.4260     0.0000     1.1990 ca         1 2EE      -0.080000
      4 C6           2.4270    -0.0060    -1.1990 ca         1 2EE      -0.087000
      5 C7           3.8090    -0.0070    -1.2000 ca         1 2EE      -0.111300
      6 C8           4.5030    -0.0020     0.0010 ca         1 2EE       0.148100
      7 O            5.8620    -0.0020     0.0010 os         1 2EE      -0.325900
      8 C9           6.5100    -1.2750     0.0630 c3         1 2EE       0.253700
      9 C10          7.9990    -1.0740     0.1730 ca         1 2EE      -0.106300
     10 C15          8.5930    -0.9710     1.4180 ca         1 2EE      -0.080000
     11 C14          9.9590    -0.7870     1.5190 ca         1 2EE      -0.105500
     12 C13         10.7330    -0.7080     0.3760 ca         1 2EE      -0.093000
     13 C12         10.1390    -0.8120    -0.8690 ca         1 2EE      -0.105500
     14 C11          8.7740    -1.0010    -0.9700 ca         1 2EE      -0.080000
     15 C3           3.8080    -0.0000     1.2010 ca         1 2EE      -0.100300
     16 C2           4.5600     0.0050     2.5080 c3         1 2EE       0.070100
     17 C1           4.9150     1.4230     2.8760 c2         1 2EE      -0.144200
     18 C            4.5260     1.9180     4.0260 c2         1 2EE      -0.172000
     19 C16          4.5610    -0.0150    -2.5060 c3         1 2EE       0.206100
     20 N            5.0120    -1.3810    -2.8030 n7         1 2EE      -0.588200
     21 C17          5.7510    -1.4260    -4.0720 c3         1 2EE       0.147800
     22 C18          6.2050    -2.8620    -4.3460 c3         1 2EE      -0.046400
     23 C19          6.9740    -2.9100    -5.6680 c3         1 2EE       0.067000
     24 N1           7.4070    -4.2840    -5.9300 ns         1 2EE      -0.218900
     25 C20          8.1080    -4.5680    -7.0460 c          1 2EE       0.567100
     26 O1           8.3800    -3.6830    -7.8360 o          1 2EE      -0.694100
     27 N2           8.5070    -5.8320    -7.2880 ns         1 2EE      -0.041100
     28 C21          9.3270    -6.1120    -8.3980 cc         1 2EE      -0.082400
     29 C24          9.2580    -5.3870    -9.5810 cc         1 2EE      -0.122000
     30 C23         10.1040    -5.7830   -10.5330 cd         1 2EE       0.015900
     31 S           11.0610    -7.1390    -9.9490 ss         1 2EE      -0.280800
     32 C22         10.2380    -7.0920    -8.3950 cd         1 2EE      -0.058100
     33 H1           1.8830     0.0010     2.1370 ha         1 2EE       0.120000
     34 H2           1.8850    -0.0090    -2.1360 ha         1 2EE       0.116000
     35 H3           6.2870    -1.8380    -0.8350 h1         1 2EE       0.012200
     36 H4           6.1540    -1.8200     0.9290 h1         1 2EE       0.012200
     37 H5           7.9870    -1.0330     2.3140 ha         1 2EE       0.106500
     38 H6          10.4230    -0.7060     2.4940 ha         1 2EE       0.103000
     39 H7          11.8030    -0.5620     0.4550 ha         1 2EE       0.102000
     40 H8          10.7450    -0.7520    -1.7650 ha         1 2EE       0.103000
     41 H9           8.3090    -1.0820    -1.9450 ha         1 2EE       0.106500
     42 H10          5.4660    -0.5790     2.4050 hc         1 2EE       0.025700
     43 H11          3.9380    -0.4250     3.2840 hc         1 2EE       0.025700
     44 H12          5.4930     2.0320     2.1920 ha         1 2EE       0.112000
     45 H13          3.9490     1.3080     4.7100 ha         1 2EE       0.084500
     46 H14          4.7810     2.9360     4.2910 ha         1 2EE       0.084500
     47 H15          3.9100     0.3310    -3.3000 h1         1 2EE       0.019700
     48 H16          5.4200     0.6410    -2.4320 h1         1 2EE       0.019700
     49 H17          4.2200    -1.9900    -2.8560 hn         1 2EE       0.254800
     50 H19          6.6170    -0.7800    -4.0090 h1         1 2EE       0.012700
     51 H20          5.1080    -1.0910    -4.8760 h1         1 2EE       0.012700
     52 H21          5.3380    -3.5090    -4.4090 hc         1 2EE       0.021200
     53 H22          6.8480    -3.1970    -3.5420 hc         1 2EE       0.021200
     54 H23          7.8410    -2.2630    -5.6050 h1         1 2EE       0.027700
     55 H24          6.3310    -2.5740    -6.4720 h1         1 2EE       0.027700
     56 H25          7.1690    -5.0150    -5.2900 hn         1 2EE       0.168500
     57 H26          8.2060    -6.5760    -6.6900 hn         1 2EE       0.159500
     58 H27          8.5680    -4.5640    -9.7210 ha         1 2EE       0.163000
     59 H28         10.1890    -5.3380   -11.5160 h4         1 2EE       0.148000
     60 H29         10.4350    -7.7580    -7.5630 h4         1 2EE       0.150000
@<TRIPOS>BOND
     1     1     2 1   
     2     2     3 ar  
     3     2     4 ar  
     4     3    15 ar  
     5     3    33 1   
     6     4     5 ar  
     7     4    34 1   
     8     5     6 ar  
     9     5    19 1   
    10     6     7 1   
    11     6    15 ar  
    12     7     8 1   
    13     8     9 1   
    14     8    35 1   
    15     8    36 1   
    16     9    10 ar  
    17     9    14 ar  
    18    10    11 ar  
    19    10    37 1   
    20    11    12 ar  
    21    11    38 1   
    22    12    13 ar  
    23    12    39 1   
    24    13    14 ar  
    25    13    40 1   
    26    14    41 1   
    27    15    16 1   
    28    16    17 1   
    29    16    42 1   
    30    16    43 1   
    31    17    18 2   
    32    17    44 1   
    33    18    45 1   
    34    18    46 1   
    35    19    20 1   
    36    19    47 1   
    37    19    48 1   
    38    20    21 1   
    39    20    49 1   
    40    21    22 1   
    41    21    50 1   
    42    21    51 1   
    43    22    23 1   
    44    22    52 1   
    45    22    53 1   
    46    23    24 1   
    47    23    54 1   
    48    23    55 1   
    49    24    25 1   
    50    24    56 1   
    51    25    26 2   
    52    25    27 1   
    53    27    28 1   
    54    27    57 1   
    55    28    29 1   
    56    28    32 2   
    57    29    30 2   
    58    29    58 1   
    59    30    31 1   
    60    30    59 1   
    61    31    32 1   
    62    32    60 1   
@<TRIPOS>SUBSTRUCTURE
     1 2EE         1 TEMP              0 ****  ****    0 ROOT
