@<TRIPOS>MOLECULE
molecule
   46    47     1     0     0
SMALL
bcc


@<TRIPOS>ATOM
      1 I            0.0000     0.0000     0.0000 i          1 2EF      -0.141900
      2 C16          2.0950     0.0000     0.0000 ca         1 2EF       0.032900
      3 C2           2.7890     0.0000     1.2010 ca         1 2EF       0.169100
      4 O            2.1110     0.0000     2.3800 os         1 2EF      -0.349900
      5 C1           1.7870    -1.2730     2.9410 c3         1 2EF       0.134400
      6 C            1.0300    -1.0720     4.2560 c3         1 2EF      -0.089100
      7 C15          2.7870    -0.0060    -1.1960 ca         1 2EF      -0.080000
      8 C14          4.1710    -0.0070    -1.1960 ca         1 2EF       0.012400
      9 Cl           5.0370    -0.0140    -2.7000 cl         1 2EF      -0.099400
     10 C13          4.8640    -0.0010     0.0010 ca         1 2EF      -0.096000
     11 C3           4.1760    -0.0010     1.1990 ca         1 2EF      -0.104300
     12 C4           4.9330     0.0000     2.5030 c3         1 2EF       0.209100
     13 N            4.9700    -1.3630     3.0480 n7         1 2EF      -0.821200
     14 C5           5.7000    -1.4020     4.3210 c3         1 2EF       0.160800
     15 C6           5.7180    -2.8350     4.8570 c3         1 2EF      -0.104400
     16 C7           6.4800    -2.8750     6.1840 c3         1 2EF       0.130000
     17 N1           6.4960    -4.2460     6.6970 ns         1 2EF      -0.602900
     18 C8           7.1150    -4.5230     7.8610 c          1 2EF       0.783100
     19 O1           7.6590    -3.6330     8.4860 o          1 2EF      -0.645100
     20 N2           7.1300    -5.7860     8.3330 ns         1 2EF      -0.480100
     21 C9           7.8720    -6.0960     9.4890 cc         1 2EF       0.061600
     22 C12          8.9710    -5.3530     9.8950 cd         1 2EF      -0.150000
     23 C11          9.5580    -5.7830    11.0130 cc         1 2EF      -0.064100
     24 S            8.7120    -7.2010    11.6180 ss         1 2EF      -0.161800
     25 C10          7.5690    -7.1280    10.2850 cd         1 2EF      -0.138100
     26 H1           2.6980    -1.8280     3.1300 h1         1 2EF       0.045200
     27 H2           1.1650    -1.8260     2.2480 h1         1 2EF       0.045200
     28 H3           0.0470    -0.6670     4.0490 hc         1 2EF       0.045367
     29 H4           1.5790    -0.3840     4.8880 hc         1 2EF       0.045367
     30 H5           0.9280    -2.0240     4.7640 hc         1 2EF       0.045367
     31 H6           2.2460    -0.0100    -2.1350 ha         1 2EF       0.157000
     32 H7           5.9470    -0.0020    -0.0010 ha         1 2EF       0.147000
     33 H8           4.4370     0.6580     3.2070 h1         1 2EF       0.050700
     34 H9           5.9440     0.3490     2.3330 h1         1 2EF       0.050700
     35 H10          5.4130    -1.9740     2.3900 hn         1 2EF       0.354800
     36 H12          5.2100    -0.7540     5.0380 h1         1 2EF       0.039700
     37 H13          6.7170    -1.0620     4.1640 h1         1 2EF       0.039700
     38 H14          4.7010    -3.1740     5.0150 hc         1 2EF       0.051700
     39 H15          6.2070    -3.4830     4.1400 hc         1 2EF       0.051700
     40 H16          5.9900    -2.2270     6.9010 h1         1 2EF       0.055700
     41 H17          7.4970    -2.5360     6.0260 h1         1 2EF       0.055700
     42 H18          6.0440    -4.9780     6.1840 hn         1 2EF       0.308500
     43 H19          6.6270    -6.5050     7.8530 hn         1 2EF       0.317500
     44 H20          9.3240    -4.4890     9.3470 ha         1 2EF       0.186000
     45 H21         10.4260    -5.3300    11.4760 h4         1 2EF       0.173000
     46 H22          6.7470    -7.8170    10.1280 h4         1 2EF       0.168000
@<TRIPOS>BOND
     1    24    23 1
     2    24    25 1
     3    23    22 2
     4    25    21 2
     5    22    21 1
     6    21    20 1
     7    20    18 1
     8    19    18 2
     9    18    17 1
    10    17    16 1
    11    16    15 1
    12    15    14 1
    13    14    13 1
    14    13    12 1
    15     4     3 1
    16     4     5 1
    17     3     2 ar
    18     3    11 ar
    19     1     2 1
    20     2     7 ar
    21    11    12 1
    22    11    10 ar
    23     7     8 ar
    24     6     5 1
    25    10     8 ar
    26     8     9 1
    27     5    26 1
    28     5    27 1
    29     6    28 1
    30     6    29 1
    31     6    30 1
    32     7    31 1
    33    10    32 1
    34    12    33 1
    35    12    34 1
    36    13    35 1
    37    14    36 1
    38    14    37 1
    39    15    38 1
    40    15    39 1
    41    16    40 1
    42    16    41 1
    43    17    42 1
    44    20    43 1
    45    22    44 1
    46    23    45 1
    47    25    46 1
@<TRIPOS>SUBSTRUCTURE
     1 2EF         1 TEMP              0 ****  ****    0 ROOT
