@<TRIPOS>MOLECULE
2EH
   27    26     1     0     0
SMALL
bcc


@<TRIPOS>ATOM
      1 C7         -0.0540    0.1340   -0.0820 c3        1 2EH      0.131400
      2 C8          2.1130    1.2270   -0.6640 c3        1 2EH     -0.077400
      3 C9          3.5670    0.9820   -0.9740 c3        1 2EH     -0.091100
      4 C12         1.6840   -1.3100    2.1750 c3        1 2EH     -0.080400
      5 C7A         1.4660    0.0590    0.0690 c3        1 2EH     -0.065700
      6 O7C        -0.3670   -0.1980   -1.4260 oh        1 2EH     -0.602800
      7 CBA         1.8380    0.0570    1.5440 c3        1 2EH     -0.078400
      8 CCA         2.0620   -1.2820    3.6410 c3        1 2EH     -0.080400
      9 CCB         1.9130   -2.6400    4.2760 c3        1 2EH     -0.093100
     10 H7         -0.5520   -0.5970    0.6120 h1        1 2EH      0.021700
     11 H7A        -0.4210    1.1680    0.1540 h1        1 2EH      0.021700
     12 H8          1.5560    1.3930   -1.6260 hc        1 2EH      0.045200
     13 H8A         2.0070    2.1580   -0.0490 hc        1 2EH      0.045200
     14 H9          4.1590    0.8310   -0.0380 hc        1 2EH      0.032367
     15 H9A         3.9950    1.8570   -1.5210 hc        1 2EH      0.032367
     16 H9B         3.6860    0.0740   -1.6130 hc        1 2EH      0.032367
     17 H12         0.6250   -1.6640    2.0690 hc        1 2EH      0.040700
     18 H12A        2.3330   -2.0490    1.6350 hc        1 2EH      0.040700
     19 H7AA        1.8150   -0.8990   -0.4070 hc        1 2EH      0.067700
     20 HO7C       -1.3250   -0.1270   -1.5090 ho        1 2EH      0.398000
     21 HBA         2.9040    0.3910    1.6540 hc        1 2EH      0.042700
     22 HBAA        1.2030    0.8010    2.0930 hc        1 2EH      0.042700
     23 HCA         3.1220   -0.9310    3.7470 hc        1 2EH      0.038200
     24 HCAA        1.4140   -0.5410    4.1800 hc        1 2EH      0.038200
     25 HCB         2.1970   -2.5980    5.3550 hc        1 2EH      0.033033
     26 HCBA        0.8570   -2.9960    4.2040 hc        1 2EH      0.033033
     27 HCBB        2.5690   -3.3880    3.7680 hc        1 2EH      0.033033
@<TRIPOS>BOND
     1    1    5 1   
     2    1    6 1   
     3    1   10 1   
     4    1   11 1   
     5    2    3 1   
     6    2    5 1   
     7    2   12 1   
     8    2   13 1   
     9    3   14 1   
    10    3   15 1   
    11    3   16 1   
    12    4    7 1   
    13    4    8 1   
    14    4   17 1   
    15    4   18 1   
    16    5    7 1   
    17    5   19 1   
    18    6   20 1   
    19    7   21 1   
    20    7   22 1   
    21    8    9 1   
    22    8   23 1   
    23    8   24 1   
    24    9   25 1   
    25    9   26 1   
    26    9   27 1   
@<TRIPOS>SUBSTRUCTURE
     1 2EH         1 TEMP              0 ****  ****    0 ROOT
