@<TRIPOS>MOLECULE
molecule
   27    26     1     0     0
SMALL
bcc


@<TRIPOS>ATOM
      1 C7           0.0000     0.0000     0.0000 c3         1 2EH       0.140400
      2 C8           2.0400     1.2480    -0.7220 c3         1 2EH      -0.078400
      3 C9           3.5650     1.1840    -0.8340 c3         1 2EH      -0.093100
      4 C12          1.6520    -1.3160     2.1210 c3         1 2EH      -0.086400
      5 C7A          1.5290     0.0000     0.0000 c3         1 2EH      -0.068700
      6 O7C         -0.4770    -0.1170    -1.3420 oh         1 2EH      -0.612800
      7 CBA          2.0400     0.0000     1.4430 c3         1 2EH      -0.080400
      8 CCA          2.1330    -1.3020     3.5730 c3         1 2EH      -0.084400
      9 CCB          1.7460    -2.6180     4.2510 c3         1 2EH      -0.092100
     10 H7          -0.3610     0.9260     0.4320 h1         1 2EH       0.021200
     11 H7A         -0.3610    -0.8370     0.5860 h1         1 2EH       0.021200
     12 H8           1.7560     2.1330    -0.1660 hc         1 2EH       0.048200
     13 H8A          1.6060     1.2900    -1.7140 hc         1 2EH       0.048200
     14 H9           4.0110     1.6570     0.0320 hc         1 2EH       0.032033
     15 H9A          3.8830     1.7020    -1.7320 hc         1 2EH       0.032033
     16 H9B          3.8810     0.1490    -0.8830 hc         1 2EH       0.032033
     17 H12          2.1140    -2.1430     1.5960 hc         1 2EH       0.042200
     18 H12A         0.5750    -1.4310     2.0980 hc         1 2EH       0.042200
     19 H7AA         1.8900    -0.8850    -0.5100 hc         1 2EH       0.063700
     20 HO7C        -1.4190    -0.1630    -1.3390 ho         1 2EH       0.400000
     21 HBA          1.5970     0.8280     1.9830 hc         1 2EH       0.046200
     22 HBAA         3.1180     0.1030     1.4450 hc         1 2EH       0.046200
     23 HCA          3.2100    -1.1870     3.5960 hc         1 2EH       0.040200
     24 HCAA         1.6700    -0.4750     4.0990 hc         1 2EH       0.040200
     25 HCB          2.0590    -2.5960     5.2880 hc         1 2EH       0.033033
     26 HCBA         2.2340    -3.4420     3.7450 hc         1 2EH       0.033033
     27 HCBB         0.6720    -2.7480     4.2010 hc         1 2EH       0.033033
@<TRIPOS>BOND
     1     1     5 1
     2     1     6 1
     3     2     3 1
     4     2     5 1
     5     4     7 1
     6     4     8 1
     7     5     7 1
     8     8     9 1
     9     1    10 1
    10     1    11 1
    11     2    12 1
    12     2    13 1
    13     3    14 1
    14     3    15 1
    15     3    16 1
    16     4    17 1
    17     4    18 1
    18     5    19 1
    19     6    20 1
    20     7    21 1
    21     7    22 1
    22     8    23 1
    23     8    24 1
    24     9    25 1
    25     9    26 1
    26     9    27 1
@<TRIPOS>SUBSTRUCTURE
     1 2EH         1 TEMP              0 ****  ****    0 ROOT
