@<TRIPOS>MOLECULE
molecule
   41    42     1     0     0
SMALL
bcc


@<TRIPOS>ATOM
      1 O            0.0000     0.0000     0.0000 o          1 2EJ      -0.645100
      2 C            1.2170     0.0000     0.0000 c          1 2EJ       0.794100
      3 N2           1.8910     0.0000     1.1670 ns         1 2EJ      -0.475100
      4 C13          1.1910     0.1010     2.3840 cc         1 2EJ       0.103600
      5 C16         -0.0840    -0.4200     2.5600 cc         1 2EJ      -0.120000
      6 C15         -0.6020    -0.2380     3.7750 cd         1 2EJ      -0.073100
      7 S            0.5450     0.6330     4.7850 ss         1 2EJ      -0.214800
      8 C14          1.7040     0.7010     3.4640 cd         1 2EJ      -0.121100
      9 N            1.8890    -0.0060    -1.1680 ns         1 2EJ      -0.617900
     10 C1           1.1570    -0.0120    -2.4360 c3         1 2EJ       0.058000
     11 C2           2.1500    -0.0170    -3.6000 c3         1 2EJ      -0.119400
     12 C3           1.3850    -0.0240    -4.9240 c3         1 2EJ       0.132800
     13 N1           2.3390    -0.0280    -6.0410 n7         1 2EJ      -0.867200
     14 C4           1.6380    -0.0350    -7.3320 c3         1 2EJ       0.203100
     15 C5           2.6470    -0.0400    -8.4510 ca         1 2EJ      -0.100300
     16 C10          3.1080    -1.2380    -8.9570 ca         1 2EJ      -0.089000
     17 C9           4.0430    -1.2410    -9.9930 ca         1 2EJ      -0.017000
     18 C11          4.5250    -2.4810   -10.5230 cg         1 2EJ      -0.134000
     19 C12          4.9370    -3.4870   -10.9640 c1         1 2EJ      -0.126500
     20 C8           4.5050    -0.0310   -10.5120 ca         1 2EJ      -0.123000
     21 C7           4.0350     1.1610    -9.9970 ca         1 2EJ      -0.100000
     22 C6           3.1050     1.1560    -8.9730 ca         1 2EJ      -0.093000
     23 H1           2.8680     0.0140     0.9510 hn         1 2EJ       0.325500
     24 H2          -0.7610    -1.1240     2.0910 ha         1 2EJ       0.176000
     25 H3          -1.3380    -0.7660     4.3700 h4         1 2EJ       0.173000
     26 H4           2.7670     0.7780     3.6610 h4         1 2EJ       0.170000
     27 H5           2.6990    -0.3860    -1.6170 hn         1 2EJ       0.333500
     28 H6           1.1760    -1.0810    -2.6110 h1         1 2EJ       0.065200
     29 H7           0.1540     0.3790    -2.3150 h1         1 2EJ       0.065200
     30 H8           3.1810    -0.3030    -3.4290 hc         1 2EJ       0.068700
     31 H9           2.2970     0.9740    -4.0130 hc         1 2EJ       0.068700
     32 H10          0.5190     0.6150    -4.8030 h1         1 2EJ       0.015700
     33 H11          0.8320    -0.9320    -5.1350 h1         1 2EJ       0.015700
     34 H12          1.8800     0.4380    -6.7980 hn         1 2EJ       0.455800
     35 H14          0.9080     0.7390    -7.5350 h1         1 2EJ       0.029200
     36 H15          1.0440    -0.8920    -7.6260 h1         1 2EJ       0.029200
     37 H16          3.0210    -2.2920    -8.7230 ha         1 2EJ       0.154000
     38 H17          5.5000    -4.4010   -11.1130 ha         1 2EJ       0.169500
     39 H18          5.0440    -0.3110   -11.4090 ha         1 2EJ       0.150000
     40 H19          4.6370     1.9420   -10.4460 ha         1 2EJ       0.145000
     41 H20          2.3320     1.8770    -8.7320 ha         1 2EJ       0.135000
@<TRIPOS>BOND
     1    14    15 1   
     2    14    13 1   
     3    22    21 ar  
     4    22    15 ar  
     5    21    20 ar  
     6    15    16 ar  
     7    20    17 ar  
     8    16    17 ar  
     9    17    18 1   
    10    18    19 3   
    11    13    12 1   
    12    12    11 1   
    13    11    10 1   
    14    10     9 1   
    15     9     2 1   
    16     2     1 2   
    17     2     3 1   
    18     3     4 1   
    19     4     8 2   
    20     4     5 1   
    21     8     7 1   
    22     5     6 2   
    23     6     7 1   
    24     3    23 1   
    25     5    24 1   
    26     6    25 1   
    27     8    26 1   
    28     9    27 1   
    29    10    28 1   
    30    10    29 1   
    31    11    30 1   
    32    11    31 1   
    33    12    32 1   
    34    12    33 1   
    35    13    34 1   
    36    14    35 1   
    37    14    36 1   
    38    16    37 1   
    39    19    38 1   
    40    20    39 1   
    41    21    40 1   
    42    22    41 1   
@<TRIPOS>SUBSTRUCTURE
     1 2EJ         1 TEMP              0 ****  ****    0 ROOT
