@<TRIPOS>MOLECULE
2EJ
   41    43     1     0     0
SMALL
bcc


@<TRIPOS>ATOM
      1 O            0.0000     0.0000     0.0000 o          1 2EJ      -0.452000
      2 C            1.2170     0.0000     0.0000 c2         1 2EJ       0.212000
      3 N2           1.8910     0.0000     1.1670 ns         1 2EJ       0.113000
      4 C13          1.1910     0.1010     2.3840 c2         1 2EJ      -0.029000
      5 C16         -0.0840    -0.4200     2.5600 c2         1 2EJ      -0.082000
      6 C15         -0.6020    -0.2380     3.7750 c2         1 2EJ      -0.274000
      7 S            0.5450     0.6330     4.7850 ss         1 2EJ       0.220000
      8 C14          1.7040     0.7010     3.4640 c2         1 2EJ      -0.330000
      9 N            1.8890    -0.0060    -1.1680 ns         1 2EJ      -0.072000
     10 C1           1.1570    -0.0120    -2.4360 c3         1 2EJ      -0.116000
     11 C2           2.1500    -0.0170    -3.6000 c3         1 2EJ      -0.150000
     12 C3           1.3850    -0.0240    -4.9240 c3         1 2EJ      -0.023000
     13 N1           2.3390    -0.0280    -6.0410 n7         1 2EJ      -0.333000
     14 C4           1.6380    -0.0350    -7.3320 DU         1 2EJ       0.078000
     15 C5           2.6470    -0.0400    -8.4510 ca         1 2EJ      -0.112000
     16 C10          3.1080    -1.2380    -8.9570 ca         1 2EJ      -0.066000
     17 C9           4.0430    -1.2410    -9.9930 ca         1 2EJ       0.011000
     18 C11          4.5250    -2.4810   -10.5230 c1         1 2EJ      -0.144000
     19 C12          4.9370    -3.4870   -10.9640 c1         1 2EJ      -0.156000
     20 C8           4.5050    -0.0310   -10.5120 ca         1 2EJ      -0.109000
     21 C7           4.0350     1.1610    -9.9970 ca         1 2EJ      -0.063000
     22 C6           3.1050     1.1560    -8.9730 ca         1 2EJ      -0.069000
     23 H1           2.8680     0.0140     0.9510 hn         1 2EJ       0.076000
     24 H2          -0.7610    -1.1240     2.0910 ha         1 2EJ       0.148000
     25 H3          -1.3380    -0.7660     4.3700 h4         1 2EJ       0.151000
     26 H4           2.7670     0.7780     3.6610 h4         1 2EJ       0.151000
     27 H5           2.6990    -0.3860    -1.6170 hn         1 2EJ       0.122000
     28 H6           1.1760    -1.0810    -2.6110 h1         1 2EJ       0.079000
     29 H7           0.1540     0.3790    -2.3150 h1         1 2EJ       0.079000
     30 H8           3.1810    -0.3030    -3.4290 hc         1 2EJ       0.078000
     31 H9           2.2970     0.9740    -4.0130 hc         1 2EJ       0.078000
     32 H10          0.5190     0.6150    -4.8030 h1         1 2EJ       0.027000
     33 H11          0.8320    -0.9320    -5.1350 h1         1 2EJ       0.027000
     34 H12          1.8800     0.4380    -6.7980 DU         1 2EJ       0.192000
     35 H14          0.9080     0.7390    -7.5350 ha         1 2EJ       0.034000
     36 H15          1.0440    -0.8920    -7.6260 ha         1 2EJ       0.034000
     37 H16          3.0210    -2.2920    -8.7230 ha         1 2EJ       0.128000
     38 H17          5.5000    -4.4010   -11.1130 ha         1 2EJ       0.198000
     39 H18          5.0440    -0.3110   -11.4090 ha         1 2EJ       0.122000
     40 H19          4.6370     1.9420   -10.4460 ha         1 2EJ       0.114000
     41 H20          2.3320     1.8770    -8.7320 ha         1 2EJ       0.107000
@<TRIPOS>BOND
     1     1     2 1   
     2     2     3 1   
     3     2     9 1   
     4     3     4 1   
     5     3    23 1   
     6     4     5 1   
     7     4     8 1   
     8     5     6 1   
     9     5    24 1   
    10     6     7 1   
    11     6    25 1   
    12     7     8 1   
    13     8    26 1   
    14     9    10 1   
    15     9    27 1   
    16    10    11 1   
    17    10    28 1   
    18    10    29 1   
    19    11    12 1   
    20    11    30 1   
    21    11    31 1   
    22    12    13 1   
    23    12    32 1   
    24    12    33 1   
    25    13    14 1   
    26    13    34 1   
    27    14    15 1   
    28    14    34 1   
    29    14    35 1   
    30    14    36 1   
    31    15    16 1   
    32    15    22 1   
    33    16    17 1   
    34    16    37 1   
    35    17    18 1   
    36    17    20 1   
    37    18    19 1   
    38    19    38 1   
    39    20    21 1   
    40    20    39 1   
    41    21    22 1   
    42    21    40 1   
    43    22    41 1   
@<TRIPOS>SUBSTRUCTURE
     1 2EJ         1 TEMP              0 ****  ****    0 ROOT
