@<TRIPOS>MOLECULE
molecule
   36    37     1     0     0
SMALL
bcc


@<TRIPOS>ATOM
      1 O            0.0000     0.0000     0.0000 o          1 2EK      -0.646100
      2 C8           1.2150     0.0000     0.0000 c          1 2EK       0.784100
      3 N2           1.8900     0.0000     1.1670 ns         1 2EK      -0.481100
      4 C9           1.1910     0.1170     2.3840 cc         1 2EK       0.062600
      5 C12         -0.0540     0.7230     2.4760 cd         1 2EK      -0.150000
      6 C11         -0.5770     0.7470     3.7040 cc         1 2EK      -0.065100
      7 S1           0.5270    -0.0250     4.8340 ss         1 2EK      -0.164800
      8 C10          1.6730    -0.3550     3.5400 cd         1 2EK      -0.136100
      9 N1           1.8890    -0.0070    -1.1670 ns         1 2EK      -0.602900
     10 C7           1.1570    -0.0140    -2.4360 c3         1 2EK       0.130000
     11 C6           2.1500    -0.0200    -3.5990 c3         1 2EK      -0.103400
     12 C5           1.3850    -0.0280    -4.9230 c3         1 2EK       0.161800
     13 N            2.3390    -0.0340    -6.0400 n7         1 2EK      -0.813200
     14 C4           1.6390    -0.0420    -7.3320 c3         1 2EK       0.224100
     15 C2           2.6490    -0.0480    -8.4510 cd         1 2EK      -0.113300
     16 C1           2.9230    -1.1800    -9.2010 cd         1 2EK      -0.141000
     17 C3           3.3420     1.0380    -8.7990 cc         1 2EK       0.093300
     18 Cl1          3.2050     2.5960    -8.0460 cl         1 2EK      -0.034400
     19 S            4.4150     0.6490   -10.1370 ss         1 2EK      -0.076800
     20 C            3.8420    -1.0140   -10.1530 cc         1 2EK       0.065300
     21 Cl           4.3910    -2.2500   -11.2410 cl         1 2EK      -0.047400
     22 H1           2.8900    -0.0520     1.1670 hn         1 2EK       0.318500
     23 H2          -0.5630     1.1440     1.6180 ha         1 2EK       0.186000
     24 H3          -1.5360     1.1790     3.9650 h4         1 2EK       0.173000
     25 H4           2.6240    -0.8580     3.6610 h4         1 2EK       0.168000
     26 H5           2.8900    -0.0090    -1.1680 hn         1 2EK       0.308500
     27 H6           0.5340    -0.8990    -2.4880 h1         1 2EK       0.054700
     28 H7           0.5340     0.8700    -2.4980 h1         1 2EK       0.054700
     29 H8           2.7730    -0.9040    -3.5370 hc         1 2EK       0.053200
     30 H9           2.7730     0.8650    -3.5470 hc         1 2EK       0.053200
     31 H10          0.7620    -0.9120    -4.9760 h1         1 2EK       0.037200
     32 H11          0.7620     0.8570    -4.9860 h1         1 2EK       0.037200
     33 H12          2.9250    -0.8430    -5.9740 hn         1 2EK       0.355800
     34 H14          1.0180     0.8420    -7.4110 h1         1 2EK       0.045700
     35 H15          1.0180    -0.9260    -7.4010 h1         1 2EK       0.045700
     36 H16          2.4300    -2.1290    -9.0260 ha         1 2EK       0.162000
@<TRIPOS>BOND
     1     6     7 1   
     2     6     5 2   
     3     7     8 1   
     4     5     4 1   
     5     8     4 2   
     6     4     3 1   
     7     3     2 1   
     8     1     2 2   
     9     2     9 1   
    10     9    10 1   
    11    10    11 1   
    12    11    12 1   
    13    12    13 1   
    14    13    14 1   
    15    19    20 1   
    16    19    17 1   
    17    21    20 1   
    18    20    16 2   
    19    16    15 1   
    20    17    15 2   
    21    17    18 1   
    22    15    14 1   
    23     3    22 1   
    24     5    23 1   
    25     6    24 1   
    26     8    25 1   
    27     9    26 1   
    28    10    27 1   
    29    10    28 1   
    30    11    29 1   
    31    11    30 1   
    32    12    31 1   
    33    12    32 1   
    34    13    33 1   
    35    14    34 1   
    36    14    35 1   
    37    16    36 1   
@<TRIPOS>SUBSTRUCTURE
     1 2EK         1 TEMP              0 ****  ****    0 ROOT
