@<TRIPOS>MOLECULE
2EL
   50    52     1     0     0
SMALL
bcc


@<TRIPOS>ATOM
      1 OAY          0.0000     0.0000     0.0000 oh         1 2EL      -0.583800
      2 CAX          1.4290     0.0000     0.0000 c3         1 2EL       0.221400
      3 CAW          1.9400     0.0000     1.4420 c3         1 2EL       0.209400
      4 OAV          1.5610    -1.2200     2.0820 os         1 2EL      -0.409600
      5 CAU          1.9910    -1.3220     3.4410 c3         1 2EL       0.230400
      6 CAI          1.5330    -2.6620     4.0210 c3         1 2EL       0.073700
      7 SAH          2.0790    -2.7910     5.7460 ss         1 2EL      -0.400200
      8 CAG          1.4530    -4.4180     6.2520 c3         1 2EL       0.094700
      9 CAF          1.8390    -4.6820     7.7080 c3         1 2EL      -0.050700
     10 CAE          1.1020    -3.6990     8.6440 c3         1 2EL       0.147800
     11 CAB          1.3600    -6.0820     8.1430 c3         1 2EL       0.189100
     12 OAA          2.4670    -6.8670     8.5930 oh         1 2EL      -0.564800
     13 CAC          0.3760    -5.8280     9.3050 c3         1 2EL       0.117800
     14 NAD          0.7720    -4.5030     9.8490 n3         1 2EL      -0.516600
     15 CAJ         -0.3290    -3.8920    10.6040 c3         1 2EL       0.250000
     16 CAK         -0.4730    -4.5890    11.9340 cc         1 2EL      -0.257000
     17 CAN         -1.3750    -5.5370    12.2460 cd         1 2EL      -0.265100
     18 NAO         -1.2010    -5.9330    13.5400 na         1 2EL       0.391600
     19 C5          -0.1610    -5.2350    14.1060 ca         1 2EL      -0.474800
     20 C6           0.3440    -4.3670    13.1220 ca         1 2EL       0.419100
     21 N1           1.3720    -3.5690    13.4230 nb         1 2EL      -0.558000
     22 C2           1.9050    -3.5950    14.6260 ca         1 2EL       0.592900
     23 N3           1.4610    -4.3950    15.5790 nb         1 2EL      -0.627000
     24 C4           0.4450    -5.2260    15.3670 ca         1 2EL       0.531200
     25 NAR         -0.0100    -6.0590    16.3760 nv         1 2EL      -0.657500
     26 H1          -0.3140     0.0630    -0.8870 ho         1 2EL       0.387000
     27 H2           1.7900    -0.8840    -0.5110 h1         1 2EL      -0.009800
     28 H3           1.7900     0.8840    -0.5110 h1         1 2EL      -0.009800
     29 H4           3.0190     0.0880     1.4430 h1         1 2EL      -0.002800
     30 H5           1.5080     0.8370     1.9780 h1         1 2EL      -0.002800
     31 H6           3.0720    -1.2610     3.4830 h1         1 2EL       0.003200
     32 H7           1.5600    -0.5130     4.0180 h1         1 2EL       0.003200
     33 H8           1.9640    -3.4710     3.4440 h1         1 2EL       0.041200
     34 H9           0.4520    -2.7230     3.9790 h1         1 2EL       0.041200
     35 H10          0.3740    -4.4360     6.1540 h1         1 2EL       0.033700
     36 H11          1.8850    -5.1840     5.6190 h1         1 2EL       0.033700
     37 H12          2.9100    -4.5940     7.8420 hc         1 2EL       0.071700
     38 H13          0.1960    -3.3380     8.1730 h1         1 2EL       0.025200
     39 H14          1.7520    -2.8730     8.9100 h1         1 2EL       0.025200
     40 H15          0.8510    -6.5750     7.3240 h1         1 2EL      -0.001300
     41 H16          2.4060    -7.7340     8.2290 ho         1 2EL       0.382000
     42 H17          0.4830    -6.5930    10.0640 h1         1 2EL       0.019200
     43 H18         -0.6420    -5.7930     8.9350 h1         1 2EL       0.019200
     44 H20         -0.1160    -2.8430    10.7670 h1         1 2EL       0.012700
     45 H21         -1.2500    -3.9910    10.0430 h1         1 2EL       0.012700
     46 H22         -2.1280    -5.9270    11.5720 h4         1 2EL       0.142000
     47 H23         -1.7500    -6.6280    14.0080 hn         1 2EL       0.115700
     48 H24          2.7350    -2.9340    14.8430 h5         1 2EL      -0.001900
     49 H25          0.3910    -6.9680    16.4930 hn         1 2EL       0.276300
     50 H26         -0.7140    -5.7370    17.0110 hn         1 2EL       0.276300
@<TRIPOS>BOND
     1     1     2 1   
     2     1    26 1   
     3     2     3 1   
     4     2    27 1   
     5     2    28 1   
     6     3     4 1   
     7     3    29 1   
     8     3    30 1   
     9     4     5 1   
    10     5     6 1   
    11     5    31 1   
    12     5    32 1   
    13     6     7 1   
    14     6    33 1   
    15     6    34 1   
    16     7     8 1   
    17     8     9 1   
    18     8    35 1   
    19     8    36 1   
    20     9    10 1   
    21     9    11 1   
    22     9    37 1   
    23    10    14 1   
    24    10    38 1   
    25    10    39 1   
    26    11    12 1   
    27    11    13 1   
    28    11    40 1   
    29    12    41 1   
    30    13    14 1   
    31    13    42 1   
    32    13    43 1   
    33    14    15 1   
    34    15    16 1   
    35    15    44 1   
    36    15    45 1   
    37    16    17 2   
    38    16    20 1   
    39    17    18 1   
    40    17    46 1   
    41    18    19 1   
    42    18    47 1   
    43    19    20 ar  
    44    19    24 ar  
    45    20    21 ar  
    46    21    22 ar  
    47    22    23 ar  
    48    22    48 1   
    49    23    24 ar  
    50    24    25 1   
    51    25    49 1   
    52    25    50 1   
@<TRIPOS>SUBSTRUCTURE
     1 2EL         1 TEMP              0 ****  ****    0 ROOT
