@<TRIPOS>MOLECULE
molecule
   50    52     1     0     0
SMALL
bcc


@<TRIPOS>ATOM
      1 OAY          0.0000     0.0000     0.0000 oh         1 2EL      -0.599800
      2 CAX          1.4290     0.0000     0.0000 c3         1 2EL       0.143400
      3 CAW          1.9400     0.0000     1.4420 c3         1 2EL       0.144400
      4 OAV          1.5610    -1.2200     2.0820 os         1 2EL      -0.421600
      5 CAU          1.9910    -1.3220     3.4410 c3         1 2EL       0.153400
      6 CAI          1.5330    -2.6620     4.0210 c3         1 2EL       0.012700
      7 SAH          2.0790    -2.7910     5.7460 ss         1 2EL      -0.348200
      8 CAG          1.4530    -4.4180     6.2520 c3         1 2EL       0.022700
      9 CAF          1.8390    -4.6820     7.7080 c3         1 2EL      -0.067700
     10 CAE          1.1020    -3.6990     8.6440 c3         1 2EL       0.146800
     11 CAB          1.3600    -6.0820     8.1430 c3         1 2EL       0.148100
     12 OAA          2.4670    -6.8670     8.5930 oh         1 2EL      -0.584800
     13 CAC          0.3760    -5.8280     9.3050 c3         1 2EL       0.122800
     14 NAD          0.7720    -4.5030     9.8490 n3         1 2EL      -0.673600
     15 CAJ         -0.3290    -3.8920    10.6040 c3         1 2EL       0.232000
     16 CAK         -0.4730    -4.5890    11.9340 cc         1 2EL      -0.257000
     17 CAN         -1.3750    -5.5370    12.2460 cd         1 2EL      -0.087100
     18 NAO         -1.2010    -5.9330    13.5400 na         1 2EL      -0.163400
     19 C5          -0.1610    -5.2350    14.1060 ca         1 2EL      -0.294800
     20 C6           0.3440    -4.3670    13.1220 ca         1 2EL       0.471100
     21 N1           1.3720    -3.5690    13.4230 nb         1 2EL      -0.692000
     22 C2           1.9050    -3.5950    14.6260 ca         1 2EL       0.658900
     23 N3           1.4610    -4.3950    15.5790 nb         1 2EL      -0.747000
     24 C4           0.4450    -5.2260    15.3670 ca         1 2EL       0.704200
     25 NAR         -0.0100    -6.0590    16.3760 nv         1 2EL      -1.084500
     26 H1          -0.3140     0.0630    -0.8870 ho         1 2EL       0.400000
     27 H2           1.7900    -0.8840    -0.5110 h1         1 2EL       0.029200
     28 H3           1.7900     0.8840    -0.5110 h1         1 2EL       0.029200
     29 H4           3.0190     0.0880     1.4430 h1         1 2EL       0.034200
     30 H5           1.5080     0.8370     1.9780 h1         1 2EL       0.034200
     31 H6           3.0720    -1.2610     3.4830 h1         1 2EL       0.036200
     32 H7           1.5600    -0.5130     4.0180 h1         1 2EL       0.036200
     33 H8           1.9640    -3.4710     3.4440 h1         1 2EL       0.068200
     34 H9           0.4520    -2.7230     3.9790 h1         1 2EL       0.068200
     35 H10          0.3740    -4.4360     6.1540 h1         1 2EL       0.057200
     36 H11          1.8850    -5.1840     5.6190 h1         1 2EL       0.057200
     37 H12          2.9100    -4.5940     7.8420 hc         1 2EL       0.098700
     38 H13          0.1960    -3.3380     8.1730 h1         1 2EL       0.052200
     39 H14          1.7520    -2.8730     8.9100 h1         1 2EL       0.052200
     40 H15          0.8510    -6.5750     7.3240 h1         1 2EL       0.030700
     41 H16          2.4060    -7.7340     8.2290 ho         1 2EL       0.396000
     42 H17          0.4830    -6.5930    10.0640 h1         1 2EL       0.046200
     43 H18         -0.6420    -5.7930     8.9350 h1         1 2EL       0.046200
     44 H20         -0.1160    -2.8430    10.7670 h1         1 2EL       0.043700
     45 H21         -1.2500    -3.9910    10.0430 h1         1 2EL       0.043700
     46 H22         -2.1280    -5.9270    11.5720 h4         1 2EL       0.168000
     47 H23         -1.7500    -6.6280    14.0080 hn         1 2EL       0.301700
     48 H24          2.7350    -2.9340    14.8430 h5         1 2EL       0.059100
     49 H25          0.3910    -6.9680    16.4930 hn         1 2EL       0.436300
     50 H26         -0.7140    -5.7370    17.0110 hn         1 2EL       0.436300
@<TRIPOS>BOND
     1     3     2 1
     2     3     4 1
     3     2     1 1
     4     7     6 1
     5     7     8 1
     6     5     4 1
     7     5     6 1
     8    22    23 ar
     9    22    21 ar
    10    23    24 ar
    11     8     9 1
    12    11     9 1
    13    11    13 1
    14    11    12 1
    15    21    20 ar
    16    24    25 1
    17    24    19 ar
    18     9    10 1
    19    13    14 1
    20    20    19 ar
    21    20    16 1
    22    19    18 1
    23    10    14 1
    24    14    15 1
    25    16    15 1
    26    16    17 2
    27    18    17 1
    28     1    26 1
    29     2    27 1
    30     2    28 1
    31     3    29 1
    32     3    30 1
    33     5    31 1
    34     5    32 1
    35     6    33 1
    36     6    34 1
    37     8    35 1
    38     8    36 1
    39     9    37 1
    40    10    38 1
    41    10    39 1
    42    11    40 1
    43    12    41 1
    44    13    42 1
    45    13    43 1
    46    15    44 1
    47    15    45 1
    48    17    46 1
    49    18    47 1
    50    22    48 1
    51    25    49 1
    52    25    50 1
@<TRIPOS>SUBSTRUCTURE
     1 2EL         1 TEMP              0 ****  ****    0 ROOT
