@<TRIPOS>MOLECULE
molecule
   45    47     1     0     0
SMALL
bcc


@<TRIPOS>ATOM
      1 O            0.0000     0.0000     0.0000 o          1 2EM      -0.647100
      2 C7           1.2150     0.0000     0.0000 c          1 2EM       0.784100
      3 N2           1.8890     0.0000     1.1680 ns         1 2EM      -0.484100
      4 C8           1.1880     0.0990     2.3850 cc         1 2EM       0.059600
      5 C11         -0.0860    -0.4220     2.5590 cc         1 2EM      -0.146000
      6 C10         -0.6050    -0.2410     3.7740 cd         1 2EM      -0.066100
      7 S            0.5410     0.6290     4.7860 ss         1 2EM      -0.164800
      8 C9           1.7010     0.6980     3.4660 cd         1 2EM      -0.132100
      9 N1           1.8900    -0.0040    -1.1670 ns         1 2EM      -0.602900
     10 C6           1.1580    -0.0090    -2.4350 c3         1 2EM       0.130000
     11 C5           2.1520    -0.0130    -3.5980 c3         1 2EM      -0.103400
     12 C4           1.3880    -0.0190    -4.9230 c3         1 2EM       0.159800
     13 N            2.3430    -0.0240    -6.0400 n7         1 2EM      -0.816200
     14 C3           1.6430    -0.0280    -7.3310 c3         1 2EM       0.220000
     15 C2           2.6530    -0.0330    -8.4500 cc         1 2EM      -0.101400
     16 C12          3.1810     1.1910    -9.0320 ca         1 2EM      -0.068800
     17 C17          2.8900     2.5340    -8.7070 ca         1 2EM      -0.100000
     18 C16          3.4970     3.5520    -9.3770 ca         1 2EM      -0.128000
     19 C15          4.4090     3.2870   -10.3900 ca         1 2EM      -0.122000
     20 C14          4.7110     1.9890   -10.7260 ca         1 2EM      -0.092000
     21 C13          4.0990     0.9280   -10.0510 ca         1 2EM      -0.012100
     22 S1           4.2770    -0.8110   -10.2520 ss         1 2EM      -0.105500
     23 C1           3.1280    -1.1450    -8.9720 cd         1 2EM      -0.002600
     24 C            2.7330    -2.5300    -8.5260 c3         1 2EM      -0.023900
     25 H1           2.8850    -0.1030     1.1710 hn         1 2EM       0.318500
     26 H2          -0.6190    -0.9360     1.7690 ha         1 2EM       0.185000
     27 H3          -1.5850    -0.5780     4.0900 h4         1 2EM       0.173000
     28 H4           2.6800     1.1600     3.5180 h4         1 2EM       0.169000
     29 H5           2.8900     0.0070    -1.1660 hn         1 2EM       0.308500
     30 H6           0.5350    -0.8940    -2.4890 h1         1 2EM       0.054200
     31 H7           0.5350     0.8750    -2.4960 h1         1 2EM       0.054200
     32 H8           2.7750    -0.8970    -3.5370 hc         1 2EM       0.052700
     33 H9           2.7740     0.8720    -3.5450 hc         1 2EM       0.052700
     34 H10          0.7640     0.8640    -4.9840 h1         1 2EM       0.035700
     35 H11          0.7660    -0.9050    -4.9770 h1         1 2EM       0.035700
     36 H12          2.9290     0.7860    -5.9810 hn         1 2EM       0.358800
     37 H14          1.0220     0.8560    -7.4080 h1         1 2EM       0.040700
     38 H15          1.0220    -0.9130    -7.4020 h1         1 2EM       0.040700
     39 H16          2.1800     2.7550    -7.9200 ha         1 2EM       0.128000
     40 H17          3.2650     4.5780    -9.1190 ha         1 2EM       0.131000
     41 H18          4.8850     4.1050   -10.9160 ha         1 2EM       0.134000
     42 H19          5.4230     1.7870   -11.5170 ha         1 2EM       0.135000
     43 H20          3.1910    -3.2640    -9.1780 hc         1 2EM       0.052700
     44 H21          1.6550    -2.6290    -8.5700 hc         1 2EM       0.052700
     45 H22          3.0690    -2.6910    -7.5080 hc         1 2EM       0.052700
@<TRIPOS>BOND
     1    14    15 1   
     2    14    13 1   
     3    18    17 ar  
     4    18    19 ar  
     5    17    16 ar  
     6    19    20 ar  
     7    16    15 1   
     8    16    21 ar  
     9    15    23 2   
    10    20    21 ar  
    11    21    22 1   
    12    23    22 1   
    13    23    24 1   
    14    13    12 1   
    15    12    11 1   
    16    11    10 1   
    17    10     9 1   
    18     9     2 1   
    19     2     1 2   
    20     2     3 1   
    21     3     4 1   
    22     4     8 2   
    23     4     5 1   
    24     8     7 1   
    25     5     6 2   
    26     7     6 1   
    27     3    25 1   
    28     5    26 1   
    29     6    27 1   
    30     8    28 1   
    31     9    29 1   
    32    10    30 1   
    33    10    31 1   
    34    11    32 1   
    35    11    33 1   
    36    12    34 1   
    37    12    35 1   
    38    13    36 1   
    39    14    37 1   
    40    14    38 1   
    41    17    39 1   
    42    18    40 1   
    43    19    41 1   
    44    20    42 1   
    45    24    43 1   
    46    24    44 1   
    47    24    45 1   
@<TRIPOS>SUBSTRUCTURE
     1 2EM         1 TEMP              0 ****  ****    0 ROOT
