@<TRIPOS>MOLECULE
molecule
   54    55     1     0     0
SMALL
bcc


@<TRIPOS>ATOM
      1 Cl           0.0000     0.0000     0.0000 cl         1 2EN      -0.107400
      2 C15          1.7350     0.0000     0.0000 ca         1 2EN       0.020400
      3 C16          2.4260     0.0000     1.1990 ca         1 2EN      -0.105000
      4 C17          3.8070     0.0010     1.2020 ca         1 2EN      -0.089300
      5 C18          4.5590     0.0010     2.5080 c3         1 2EN       0.002100
      6 C19          4.9160     1.4160     2.8810 c2         1 2EN      -0.159200
      7 C20          4.5590     1.8960     4.0480 c2         1 2EN      -0.227000
      8 C3           4.5020     0.0010     0.0010 ca         1 2EN       0.139100
      9 O            5.8620     0.0020     0.0020 os         1 2EN      -0.349900
     10 C2           6.5110    -1.2710     0.0020 c3         1 2EN       0.168600
     11 C1           8.0050    -1.0740     0.0030 c2         1 2EN      -0.163200
     12 C            8.7590    -1.7830     0.8050 c2         1 2EN      -0.217000
     13 C14          2.4280    -0.0050    -1.1980 ca         1 2EN      -0.114000
     14 C4           3.8080     0.0010    -1.2000 ca         1 2EN      -0.101300
     15 C5           4.5600    -0.0050    -2.5060 c3         1 2EN       0.208100
     16 N            5.0190    -1.3690    -2.8000 n7         1 2EN      -0.822200
     17 C6           5.7590    -1.4140    -4.0690 c3         1 2EN       0.159800
     18 C7           6.2200    -2.8470    -4.3410 c3         1 2EN      -0.104400
     19 C8           6.9900    -2.8930    -5.6630 c3         1 2EN       0.130000
     20 N1           7.4310    -4.2650    -5.9230 ns         1 2EN      -0.602900
     21 C9           8.1330    -4.5470    -7.0380 c          1 2EN       0.783100
     22 O1           8.4000    -3.6620    -7.8280 o          1 2EN      -0.646100
     23 N2           8.5390    -5.8100    -7.2780 ns         1 2EN      -0.481100
     24 C10          9.1720    -6.1270    -8.4960 cc         1 2EN       0.061600
     25 C13          8.9730    -5.3920    -9.6550 cd         1 2EN      -0.150000
     26 C12          9.6500    -5.8280   -10.7190 cc         1 2EN      -0.065100
     27 S           10.6020    -7.2390   -10.2780 ss         1 2EN      -0.162800
     28 C11         10.0170    -7.1570    -8.6220 cd         1 2EN      -0.136100
     29 H1           1.8840    -0.0150     2.1360 ha         1 2EN       0.148000
     30 H2           5.4650    -0.5840     2.4030 hc         1 2EN       0.057200
     31 H3           3.9380    -0.4310     3.2820 hc         1 2EN       0.057200
     32 H4           5.4680     2.0370     2.1860 ha         1 2EN       0.136000
     33 H5           4.8150     2.9130     4.3170 ha         1 2EN       0.112000
     34 H6           4.0070     1.2750     4.7430 ha         1 2EN       0.112000
     35 H7           6.2190    -1.8250     0.8860 h1         1 2EN       0.049200
     36 H8           6.2200    -1.8250    -0.8830 h1         1 2EN       0.049200
     37 H9           8.4550    -0.3450    -0.6600 ha         1 2EN       0.135000
     38 H10          9.8330    -1.6410     0.8050 ha         1 2EN       0.114500
     39 H11          8.3080    -2.5120     1.4680 ha         1 2EN       0.114500
     40 H12          1.8850    -0.0050    -2.1360 ha         1 2EN       0.144000
     41 H13          5.4160     0.6560    -2.4330 h1         1 2EN       0.049200
     42 H14          3.9080     0.3360    -3.3000 h1         1 2EN       0.049200
     43 H15          4.2300    -1.9820    -2.8520 hn         1 2EN       0.354800
     44 H17          5.1140    -1.0830    -4.8750 h1         1 2EN       0.039700
     45 H18          6.6220    -0.7620    -4.0070 h1         1 2EN       0.039700
     46 H19          6.8650    -3.1780    -3.5360 hc         1 2EN       0.051700
     47 H20          5.3570    -3.4990    -4.4030 hc         1 2EN       0.051700
     48 H21          6.3460    -2.5620    -6.4680 h1         1 2EN       0.055200
     49 H22          7.8540    -2.2420    -5.6000 h1         1 2EN       0.055200
     50 H23          7.1930    -4.9970    -5.2830 hn         1 2EN       0.308500
     51 H24          8.3580    -6.5300    -6.6060 hn         1 2EN       0.317500
     52 H25          8.3180    -4.5300    -9.6940 ha         1 2EN       0.186000
     53 H26          9.6170    -5.3810   -11.7050 h4         1 2EN       0.173000
     54 H27         10.2940    -7.8390    -7.8270 h4         1 2EN       0.169000
@<TRIPOS>BOND
     1    27    26 1
     2    27    28 1
     3    26    25 2
     4    25    24 1
     5    28    24 2
     6    24    23 1
     7    23    21 1
     8    22    21 2
     9    21    20 1
    10    20    19 1
    11    19    18 1
    12    18    17 1
    13    17    16 1
    14    16    15 1
    15    12    11 2
    16    15    14 1
    17    14    13 ar
    18    14     8 ar
    19     9     8 1
    20     9    10 1
    21    13     2 ar
    22     8     4 ar
    23     2     1 1
    24     2     3 ar
    25     5     4 1
    26     5     6 1
    27     4     3 ar
    28    11    10 1
    29     6     7 2
    30     3    29 1
    31     5    30 1
    32     5    31 1
    33     6    32 1
    34     7    33 1
    35     7    34 1
    36    10    35 1
    37    10    36 1
    38    11    37 1
    39    12    38 1
    40    12    39 1
    41    13    40 1
    42    15    41 1
    43    15    42 1
    44    16    43 1
    45    17    44 1
    46    17    45 1
    47    18    46 1
    48    18    47 1
    49    19    48 1
    50    19    49 1
    51    20    50 1
    52    23    51 1
    53    25    52 1
    54    26    53 1
    55    28    54 1
@<TRIPOS>SUBSTRUCTURE
     1 2EN         1 TEMP              0 ****  ****    0 ROOT
