@<TRIPOS>MOLECULE
2EN
   54    55     1     0     0
SMALL
bcc


@<TRIPOS>ATOM
      1 Cl           0.0000     0.0000     0.0000 cl         1 2EN      -0.025400
      2 C15          1.7350     0.0000     0.0000 ca         1 2EN      -0.043600
      3 C16          2.4260     0.0000     1.1990 ca         1 2EN      -0.080000
      4 C17          3.8070     0.0010     1.2020 ca         1 2EN      -0.098300
      5 C18          4.5590     0.0010     2.5080 c3         1 2EN       0.071100
      6 C19          4.9160     1.4160     2.8810 c2         1 2EN      -0.142200
      7 C20          4.5590     1.8960     4.0480 c2         1 2EN      -0.173000
      8 C3           4.5020     0.0010     0.0010 ca         1 2EN       0.148100
      9 O            5.8620     0.0020     0.0020 os         1 2EN      -0.328900
     10 C2           6.5110    -1.2710     0.0020 c3         1 2EN       0.231600
     11 C1           8.0050    -1.0740     0.0030 c2         1 2EN      -0.152200
     12 C            8.7590    -1.7830     0.8050 c2         1 2EN      -0.160000
     13 C14          2.4280    -0.0050    -1.1980 ca         1 2EN      -0.088000
     14 C4           3.8080     0.0010    -1.2000 ca         1 2EN      -0.113300
     15 C5           4.5600    -0.0050    -2.5060 c3         1 2EN       0.206100
     16 N            5.0190    -1.3690    -2.8000 n7         1 2EN      -0.587200
     17 C6           5.7590    -1.4140    -4.0690 c3         1 2EN       0.148800
     18 C7           6.2200    -2.8470    -4.3410 c3         1 2EN      -0.045400
     19 C8           6.9900    -2.8930    -5.6630 c3         1 2EN       0.067000
     20 N1           7.4310    -4.2650    -5.9230 ns         1 2EN      -0.218900
     21 C9           8.1330    -4.5470    -7.0380 c          1 2EN       0.566100
     22 O1           8.4000    -3.6620    -7.8280 o          1 2EN      -0.692100
     23 N2           8.5390    -5.8100    -7.2780 ns         1 2EN      -0.039100
     24 C10          9.1720    -6.1270    -8.4960 cc         1 2EN      -0.079400
     25 C13          8.9730    -5.3920    -9.6550 cc         1 2EN      -0.126000
     26 C12          9.6500    -5.8280   -10.7190 cd         1 2EN       0.016900
     27 S           10.6020    -7.2390   -10.2780 ss         1 2EN      -0.279800
     28 C11         10.0170    -7.1570    -8.6220 cd         1 2EN      -0.064100
     29 H1           1.8840    -0.0150     2.1360 ha         1 2EN       0.119000
     30 H2           5.4650    -0.5840     2.4030 hc         1 2EN       0.026200
     31 H3           3.9380    -0.4310     3.2820 hc         1 2EN       0.026200
     32 H4           5.4680     2.0370     2.1860 ha         1 2EN       0.111000
     33 H5           4.0070     1.2750     4.7430 ha         1 2EN       0.084500
     34 H6           4.8150     2.9130     4.3170 ha         1 2EN       0.084500
     35 H7           6.2190    -1.8250     0.8860 h1         1 2EN       0.014700
     36 H8           6.2200    -1.8250    -0.8830 h1         1 2EN       0.014700
     37 H9           8.4550    -0.3450    -0.6600 ha         1 2EN       0.109000
     38 H10          8.3080    -2.5120     1.4680 ha         1 2EN       0.085000
     39 H11          9.8330    -1.6410     0.8050 ha         1 2EN       0.085000
     40 H12          1.8850    -0.0050    -2.1360 ha         1 2EN       0.116000
     41 H13          5.4160     0.6560    -2.4330 h1         1 2EN       0.019200
     42 H14          3.9080     0.3360    -3.3000 h1         1 2EN       0.019200
     43 H15          4.2300    -1.9820    -2.8520 hn         1 2EN       0.254800
     44 H17          6.6220    -0.7620    -4.0070 h1         1 2EN       0.012700
     45 H18          5.1140    -1.0830    -4.8750 h1         1 2EN       0.012700
     46 H19          6.8650    -3.1780    -3.5360 hc         1 2EN       0.020700
     47 H20          5.3570    -3.4990    -4.4030 hc         1 2EN       0.020700
     48 H21          6.3460    -2.5620    -6.4680 h1         1 2EN       0.027200
     49 H22          7.8540    -2.2420    -5.6000 h1         1 2EN       0.027200
     50 H23          7.1930    -4.9970    -5.2830 hn         1 2EN       0.168500
     51 H24          8.3580    -6.5300    -6.6060 hn         1 2EN       0.159500
     52 H25          8.3180    -4.5300    -9.6940 ha         1 2EN       0.165000
     53 H26          9.6170    -5.3810   -11.7050 h4         1 2EN       0.148000
     54 H27         10.2940    -7.8390    -7.8270 h4         1 2EN       0.151000
@<TRIPOS>BOND
     1     1     2 1   
     2     2     3 ar  
     3     2    13 ar  
     4     3     4 ar  
     5     3    29 1   
     6     4     5 1   
     7     4     8 ar  
     8     5     6 1   
     9     5    30 1   
    10     5    31 1   
    11     6     7 2   
    12     6    32 1   
    13     7    33 1   
    14     7    34 1   
    15     8     9 1   
    16     8    14 ar  
    17     9    10 1   
    18    10    11 1   
    19    10    35 1   
    20    10    36 1   
    21    11    12 2   
    22    11    37 1   
    23    12    38 1   
    24    12    39 1   
    25    13    14 ar  
    26    13    40 1   
    27    14    15 1   
    28    15    16 1   
    29    15    41 1   
    30    15    42 1   
    31    16    17 1   
    32    16    43 1   
    33    17    18 1   
    34    17    44 1   
    35    17    45 1   
    36    18    19 1   
    37    18    46 1   
    38    18    47 1   
    39    19    20 1   
    40    19    48 1   
    41    19    49 1   
    42    20    21 1   
    43    20    50 1   
    44    21    22 2   
    45    21    23 1   
    46    23    24 1   
    47    23    51 1   
    48    24    25 1   
    49    24    28 2   
    50    25    26 2   
    51    25    52 1   
    52    26    27 1   
    53    26    53 1   
    54    27    28 1   
    55    28    54 1   
@<TRIPOS>SUBSTRUCTURE
     1 2EN         1 TEMP              0 ****  ****    0 ROOT
