@<TRIPOS>MOLECULE
2EO
   50    54     1     0     0
SMALL
bcc


@<TRIPOS>ATOM
      1 O1          2.2670    1.6380   -0.7670 o         1 2EO     -0.582100
      2 C1          1.9400    0.6020   -0.1630 c         1 2EO      0.678100
      3 C5          2.3770    0.4000    1.2830 c3        1 2EO     -0.178700
      4 C6          1.2660    0.2830    2.2800 cc        1 2EO      0.343900
      5 N11         0.0040    0.3630    1.8840 nd        1 2EO     -0.425300
      6 N10        -0.9880    0.2740    2.7590 n         1 2EO     -0.207800
      7 C17        -2.3620    0.4000    2.2810 c3        1 2EO      0.097300
      8 C7          1.6440    0.1090    3.6820 ca        1 2EO     -0.106900
      9 C8          0.5970    0.0180    4.6230 ca        1 2EO     -0.139600
     10 C15         0.8780   -0.1500    5.9860 ca        1 2EO     -0.066000
     11 C14         2.1990   -0.2270    6.4110 ca        1 2EO     -0.135000
     12 C13         3.2420   -0.1360    5.4820 ca        1 2EO     -0.096000
     13 C12         2.9720    0.0310    4.1280 ca        1 2EO     -0.129000
     14 C9         -0.8010    0.1070    4.1610 c         1 2EO      0.683100
     15 O16        -1.7950    0.0410    4.9050 o         1 2EO     -0.609500
     16 N1          1.2530   -0.4490   -0.7510 n         1 2EO     -0.455100
     17 C18         0.7020   -0.4790   -2.0440 ca        1 2EO      0.080600
     18 C19         1.0510    0.4610   -3.0340 ca        1 2EO     -0.147000
     19 C20         0.4630    0.2970   -4.2800 ca        1 2EO      0.082100
     20 C21        -0.4550   -0.7530   -4.6020 ca        1 2EO     -0.112800
     21 C22        -0.7850   -1.6670   -3.6060 ca        1 2EO     -0.062000
     22 C23        -0.2160   -1.5280   -2.3490 ca        1 2EO     -0.198000
     23 O24         0.6790    1.1220   -5.3910 os        1 2EO     -0.188200
     24 C25        -0.1170    0.5730   -6.4110 cc        1 2EO      0.025900
     25 C26        -0.8110   -0.5430   -5.9900 cd        1 2EO     -0.124400
     26 C27        -0.1530    1.1920   -7.7430 c3        1 2EO     -0.016200
     27 C28        -0.8140    0.2220   -8.7160 c3        1 2EO     -0.075400
     28 C29        -2.0310   -0.4640   -8.1220 c3        1 2EO     -0.079400
     29 C30        -1.7020   -1.2940   -6.8870 c3        1 2EO     -0.007200
     30 H1          3.0060    1.2920    1.5620 hc        1 2EO      0.089200
     31 H2          3.0200   -0.5190    1.3480 hc        1 2EO      0.089200
     32 H3         -2.9090   -0.5470    2.5320 h1        1 2EO      0.062700
     33 H4         -2.3970    0.5800    1.1760 h1        1 2EO      0.062700
     34 H5         -2.8470    1.2560    2.8210 h1        1 2EO      0.062700
     35 H6          0.0420   -0.2170    6.7010 ha        1 2EO      0.164000
     36 H7          2.4260   -0.3590    7.4790 ha        1 2EO      0.144000
     37 H8          4.2850   -0.1950    5.8280 ha        1 2EO      0.141000
     38 H9          3.8020    0.1050    3.4100 ha        1 2EO      0.142000
     39 H10         0.9440   -1.1770   -0.1440 hn        1 2EO      0.320500
     40 H11         1.7470    1.2930   -2.8450 ha        1 2EO      0.189000
     41 H12        -1.4890   -2.4870   -3.8110 ha        1 2EO      0.138000
     42 H13        -0.4870   -2.2570   -1.5680 ha        1 2EO      0.129000
     43 H14        -0.7350    2.1520   -7.6910 hc        1 2EO      0.065200
     44 H15         0.8840    1.4460   -8.0900 hc        1 2EO      0.065200
     45 H16        -0.0670   -0.5560   -9.0230 hc        1 2EO      0.046700
     46 H17        -1.1170    0.7850   -9.6370 hc        1 2EO      0.046700
     47 H18        -2.4910   -1.1310   -8.8970 hc        1 2EO      0.044700
     48 H19        -2.7930    0.3120   -7.8490 hc        1 2EO      0.044700
     49 H20        -1.2010   -2.2520   -7.1950 hc        1 2EO      0.051200
     50 H21        -2.6510   -1.5700   -6.3560 hc        1 2EO      0.051200
@<TRIPOS>BOND
     1    1    2 2   
     2    2    3 1   
     3    2   16 1   
     4    3    4 1   
     5    3   30 1   
     6    3   31 1   
     7    4    5 2   
     8    4    8 1   
     9    5    6 1   
    10    6    7 1   
    11    6   14 1   
    12    7   32 1   
    13    7   33 1   
    14    7   34 1   
    15    8    9 ar  
    16    8   13 ar  
    17    9   10 ar  
    18    9   14 1   
    19   10   11 ar  
    20   10   35 1   
    21   11   12 ar  
    22   11   36 1   
    23   12   13 ar  
    24   12   37 1   
    25   13   38 1   
    26   14   15 2   
    27   16   17 1   
    28   16   39 1   
    29   17   18 ar  
    30   17   22 ar  
    31   18   19 ar  
    32   18   40 1   
    33   19   20 ar  
    34   19   23 1   
    35   20   21 ar  
    36   20   25 1   
    37   21   22 ar  
    38   21   41 1   
    39   22   42 1   
    40   23   24 1   
    41   24   25 2   
    42   24   26 1   
    43   25   29 1   
    44   26   27 1   
    45   26   43 1   
    46   26   44 1   
    47   27   28 1   
    48   27   45 1   
    49   27   46 1   
    50   28   29 1   
    51   28   47 1   
    52   28   48 1   
    53   29   49 1   
    54   29   50 1   
@<TRIPOS>SUBSTRUCTURE
     1 2EO         1 TEMP              0 ****  ****    0 ROOT
