@<TRIPOS>MOLECULE
2EP
   23    23     1     0     0
SMALL
bcc


@<TRIPOS>ATOM
      1 N1           0.0000     0.0000     0.0000 n7         1 2EP      -0.577200
      2 C2           1.4660     0.0000     0.0000 c3         1 2EP       0.113500
      3 C3           1.9820     0.0000     1.4390 c3         1 2EP      -0.022400
      4 C4           1.5010    -1.2690     2.1470 c3         1 2EP      -0.025400
      5 C5          -0.0250    -1.3460     2.0470 c3         1 2EP      -0.024400
      6 C6          -0.4370    -1.2750     0.5750 c3         1 2EP       0.142800
      7 C1'          1.9760     1.2480    -0.7230 c3         1 2EP      -0.029400
      8 C2'          1.4630     1.2490    -2.1640 c3         1 2EP      -0.002100
      9 HN1         -0.3340     0.0740    -0.9410 hn         1 2EP       0.258800
     10 H2           1.8230    -0.8870    -0.5090 h1         1 2EP       0.008700
     11 H31          1.6000     0.8700     1.9600 hc         1 2EP       0.020200
     12 H32          3.0650     0.0210     1.4340 hc         1 2EP       0.020200
     13 H41          1.7940    -1.2350     3.1900 hc         1 2EP       0.011700
     14 H42          1.9390    -2.1380     1.6700 hc         1 2EP       0.011700
     15 H51         -0.3680    -2.2810     2.4730 hc         1 2EP       0.018700
     16 H52         -0.4640    -0.5150     2.5850 hc         1 2EP       0.018700
     17 H61         -1.5150    -1.3520     0.5000 h1         1 2EP       0.003200
     18 H62          0.0260    -2.0910     0.0330 h1         1 2EP       0.003200
     19 H1'1         3.0590     1.2470    -0.7250 hc         1 2EP       0.020700
     20 H1'2         1.6170     2.1330    -0.2120 hc         1 2EP       0.020700
     21 H2'1         2.0900     1.8920    -2.7700 hc         1 2EP       0.002700
     22 H2'2         1.4920     0.2410    -2.5580 hc         1 2EP       0.002700
     23 H2'3         0.4440     1.6150    -2.1850 hc         1 2EP       0.002700
@<TRIPOS>BOND
     1     1     2 1   
     2     1     6 1   
     3     1     9 1   
     4     2     3 1   
     5     2     7 1   
     6     2    10 1   
     7     3     4 1   
     8     3    11 1   
     9     3    12 1   
    10     4     5 1   
    11     4    13 1   
    12     4    14 1   
    13     5     6 1   
    14     5    15 1   
    15     5    16 1   
    16     6    17 1   
    17     6    18 1   
    18     7     8 1   
    19     7    19 1   
    20     7    20 1   
    21     8    21 1   
    22     8    22 1   
    23     8    23 1   
@<TRIPOS>SUBSTRUCTURE
     1 2EP         1 TEMP              0 ****  ****    0 ROOT
