@<TRIPOS>MOLECULE
2EQ
   57    60     1     0     0
SMALL
bcc


@<TRIPOS>ATOM
      1 C20         0.4760   -0.0660    0.1140 c3        1 2EQ      0.128800
      2 C21         1.7210    0.7370   -0.2810 c3        1 2EQ      0.126400
      3 O4          2.6810    0.7570    0.7680 os        1 2EQ     -0.407600
      4 C22         2.1410    1.2740    1.9790 c3        1 2EQ      0.126400
      5 C23         0.9020    0.4900    2.4280 c3        1 2EQ      0.128800
      6 N4         -0.1020    0.3870    1.3730 n3        1 2EQ     -0.728600
      7 C19        -1.2400   -0.4220    1.7880 c3        1 2EQ      0.204100
      8 C16        -2.4560   -0.2390    0.9240 ca        1 2EQ     -0.049300
      9 C17        -3.1800   -1.3600    0.5010 ca        1 2EQ     -0.117500
     10 C18        -4.3400   -1.2060   -0.2540 ca        1 2EQ     -0.106500
     11 C15        -2.9070    1.0410    0.5830 ca        1 2EQ     -0.117500
     12 C14        -4.0650    1.2000   -0.1750 ca        1 2EQ     -0.106500
     13 C13        -4.7890    0.0770   -0.6010 ca        1 2EQ     -0.077000
     14 C9         -5.9910    0.2410   -1.3860 cc        1 2EQ     -0.201600
     15 C8         -6.0870    0.3410   -2.8370 cc        1 2EQ      0.208800
     16 C10        -4.9760    0.2850   -3.7790 c         1 2EQ      0.496600
     17 O3         -3.7890    0.1130   -3.5600 o         1 2EQ     -0.387100
     18 N3         -5.3850    0.4790   -5.2350 n4        1 2EQ     -0.677800
     19 C11        -4.2550    0.3870   -6.2110 c3        1 2EQ      0.111800
     20 C12        -3.8410   -1.0370   -6.5140 c3        1 2EQ     -0.133100
     21 N2         -7.3960    0.4960   -3.1900 nd        1 2EQ     -0.351300
     22 O5         -8.1270    0.5020   -2.1240 os        1 2EQ     -0.023100
     23 C7         -7.3210    0.3470   -0.9570 cd        1 2EQ      0.401200
     24 C5         -8.0000    0.3370    0.3010 ca        1 2EQ     -0.254500
     25 C6         -7.2770    0.1490    1.4920 ca        1 2EQ     -0.004000
     26 C4         -7.9160    0.1370    2.7250 ca        1 2EQ     -0.117600
     27 CL1        -7.0030   -0.0940    4.1370 cl        1 2EQ     -0.057400
     28 C3         -9.3190    0.3160    2.7940 ca        1 2EQ      0.231100
     29 O2        -10.0330    0.3200    3.9540 oh        1 2EQ     -0.465100
     30 C2        -10.0620    0.5050    1.6200 ca        1 2EQ     -0.257000
     31 C1         -9.4050    0.5150    0.3860 ca        1 2EQ      0.220100
     32 O1        -10.0740    0.6950   -0.7920 oh        1 2EQ     -0.481100
     33 H201       -0.3070    0.0620   -0.6850 h1        1 2EQ      0.043200
     34 H202        0.7570   -1.1590    0.1550 h1        1 2EQ      0.043200
     35 H211        1.4450    1.7870   -0.5600 h1        1 2EQ      0.057450
     36 H212        2.2490    0.2350   -1.1330 h1        1 2EQ      0.057450
     37 H221        1.8960    2.3610    1.8470 h1        1 2EQ      0.057450
     38 H222        2.9670    1.1510    2.7280 h1        1 2EQ      0.057450
     39 H231        0.4350    1.0300    3.2980 h1        1 2EQ      0.043200
     40 H232        1.2340   -0.5280    2.7840 h1        1 2EQ      0.043200
     41 H191       -0.9780   -1.5220    1.8260 h1        1 2EQ      0.051700
     42 H192       -1.5240   -0.1090    2.8370 h1        1 2EQ      0.051700
     43 H17        -2.8350   -2.3720    0.7660 ha        1 2EQ      0.156000
     44 H15        -2.3420    1.9270    0.9150 ha        1 2EQ      0.156000
     45 H18        -4.9050   -2.0940   -0.5760 ha        1 2EQ      0.139000
     46 H14        -4.4140    2.2110   -0.4330 ha        1 2EQ      0.139000
     47 H3         -5.8270    1.4030   -5.3170 hn        1 2EQ      0.467300
     48 H111       -3.3810    0.9580   -5.7820 hx        1 2EQ      0.110200
     49 H112       -4.5960    0.8990   -7.1570 hx        1 2EQ      0.110200
     50 H121       -3.0170   -1.0030   -7.2720 hc        1 2EQ      0.080367
     51 H122       -4.6840   -1.6340   -6.9420 hc        1 2EQ      0.080367
     52 H123       -3.4540   -1.5510   -5.6000 hc        1 2EQ      0.080367
     53 H6         -6.1820    0.0090    1.4370 ha        1 2EQ      0.172000
     54 H2         -9.4280    0.1830    4.7040 ho        1 2EQ      0.450000
     55 HA        -11.1520    0.6430    1.6880 ha        1 2EQ      0.177000
     56 H1        -11.0210    0.8050   -0.6000 ho        1 2EQ      0.445000
     57 H32        -6.0890   -0.2330   -5.4660 hn        1 2EQ      0.467300
@<TRIPOS>BOND
     1    1    2 1   
     2    1    6 1   
     3    1   33 1   
     4    1   34 1   
     5    2    3 1   
     6    2   35 1   
     7    2   36 1   
     8    3    4 1   
     9    4    5 1   
    10    4   37 1   
    11    4   38 1   
    12    5    6 1   
    13    5   39 1   
    14    5   40 1   
    15    6    7 1   
    16    7    8 1   
    17    7   41 1   
    18    7   42 1   
    19    8    9 ar  
    20    8   11 ar  
    21    9   10 ar  
    22    9   43 1   
    23   10   13 ar  
    24   10   45 1   
    25   11   12 ar  
    26   11   44 1   
    27   12   13 ar  
    28   12   46 1   
    29   13   14 1   
    30   14   15 1   
    31   14   23 2   
    32   15   16 1   
    33   15   21 2   
    34   16   17 2   
    35   16   18 1   
    36   18   19 1   
    37   18   47 1   
    38   18   57 1   
    39   19   20 1   
    40   19   48 1   
    41   19   49 1   
    42   20   50 1   
    43   20   51 1   
    44   20   52 1   
    45   21   22 1   
    46   22   23 1   
    47   23   24 1   
    48   24   25 ar  
    49   24   31 ar  
    50   25   26 ar  
    51   25   53 1   
    52   26   27 1   
    53   26   28 ar  
    54   28   29 1   
    55   28   30 ar  
    56   29   54 1   
    57   30   31 ar  
    58   30   55 1   
    59   31   32 1   
    60   32   56 1   
@<TRIPOS>SUBSTRUCTURE
     1 2EQ         1 TEMP              0 ****  ****    0 ROOT
