@<TRIPOS>MOLECULE
2ER
   59    60     1     0     0
SMALL
bcc


@<TRIPOS>ATOM
      1 N1         -0.4100    0.3670   -0.4110 na        1 2ER     -0.227900
      2 C2          0.9840    0.5610   -0.5220 cc        1 2ER      0.435400
      3 N3          1.5500    0.8940    0.6460 nd        1 2ER     -0.676000
      4 C4          0.5050    0.9240    1.5840 cd        1 2ER      0.149800
      5 C5         -0.7340    0.5870    0.9390 cc        1 2ER      0.115000
      6 N6         -1.9680    0.4460    1.5590 nh        1 2ER     -0.733600
      7 C7         -3.1820    0.8260    0.9660 c2        1 2ER      0.634100
      8 N8         -4.3710    0.8410    1.4750 n2        1 2ER     -0.660900
      9 C9          0.6590    1.2230    3.0060 c         1 2ER      0.627600
     10 N9          1.8730    1.6790    3.4610 n         1 2ER     -0.667000
     11 O9         -0.2800    1.0780    3.8320 o         1 2ER     -0.700100
     12 O'1         2.7540    0.9580   -5.8410 o         1 2ER     -0.931167
     13 O'L        -3.9640   -0.0390   10.0300 o         1 2ER     -0.839000
     14 C1'        -1.2750   -0.1100   -1.4830 c3        1 2ER      0.210800
     15 C1B        -4.6680    0.4800    2.8270 c3        1 2ER      0.008800
     16 C2''       -4.6400    1.5810    3.8720 c         1 2ER      0.546100
     17 C2'        -1.7800    1.0330   -2.4300 c3        1 2ER      0.095100
     18 O2'        -3.1900    0.9890   -2.4500 oh        1 2ER     -0.620800
     19 O2B        -4.5330    2.7820    3.6270 o         1 2ER     -0.521100
     20 C3''       -4.7680    1.0430    5.2950 c3        1 2ER      0.056100
     21 C3'        -1.0830    0.7600   -3.7800 c3        1 2ER      0.133100
     22 O3'        -2.0570    0.7220   -4.7970 oh        1 2ER     -0.684800
     23 O3B        -5.6390    1.8660    6.0410 oh        1 2ER     -0.601800
     24 C4'        -0.3910   -0.6070   -3.6290 c3        1 2ER      0.054100
     25 O4'        -0.5740   -1.0620   -2.2640 os        1 2ER     -0.429600
     26 C4B        -3.3650    0.9260    5.9200 c3        1 2ER      0.106100
     27 O4B        -2.6790   -0.0820    5.1880 oh        1 2ER     -0.626800
     28 C5'         1.1160   -0.5830   -3.9870 c3        1 2ER      0.229400
     29 C5B        -3.4410    0.5190    7.3970 c3        1 2ER      0.161400
     30 O6'         1.3110   -1.0260   -5.2650 os        1 2ER     -0.556200
     31 O6B        -3.7290    1.6490    8.1650 os        1 2ER     -0.577200
     32 P7'         1.5670    0.2510   -6.4270 p5        1 2ER      1.335900
     33 P7B        -3.6150    1.3800    9.7940 p5        1 2ER      1.429800
     34 O8'         0.2500    0.9770   -6.2250 o         1 2ER     -0.931167
     35 O8B        -4.1690    2.5560   10.4850 o         1 2ER     -0.839000
     36 O9'         1.7420   -0.4790   -7.7220 o         1 2ER     -0.931167
     37 O9B        -1.9830    1.3430    9.9190 oh        1 2ER     -0.784400
     38 H2          1.4900    0.4230   -1.4940 h5        1 2ER      0.106100
     39 HN6        -1.9020    0.4470    2.5640 hn        1 2ER      0.470800
     40 H7         -3.1200    1.1040   -0.1180 h5        1 2ER      0.070800
     41 HN9        -1.6550    0.4520    9.9590 ho        1 2ER      0.422000
     42 HN9A        2.6340    1.8080    2.8450 hn        1 2ER      0.311500
     43 H1'        -2.1440   -0.6560   -1.0080 h2        1 2ER      0.077700
     44 H1B        -5.7330    0.0990    2.8110 h1        1 2ER      0.069200
     45 H1BA       -4.0180   -0.3570    3.2270 h1        1 2ER      0.069200
     46 H2'        -1.5190    2.0520   -2.0390 h1        1 2ER      0.069700
     47 HO2'       -3.4660    0.5440   -3.2640 ho        1 2ER      0.436000
     48 H3''       -5.2580    0.0280    5.2700 h1        1 2ER      0.070700
     49 H3'        -0.3310    1.5670   -4.0080 h1        1 2ER      0.114700
     50 HO3'       -1.5480    0.7870   -5.6430 ho        1 2ER      0.515000
     51 HO3B       -5.1050    2.4200    6.6310 ho        1 2ER      0.445000
     52 H4'        -0.9060   -1.3770   -4.2640 h1        1 2ER      0.081700
     53 H4B        -2.8430    1.9200    5.8330 h1        1 2ER      0.068700
     54 HO4B       -1.7480    0.1760    5.1590 ho        1 2ER      0.436000
     55 H5'         1.6360   -1.2760   -3.2600 h1        1 2ER     -0.001300
     56 H5'A        1.5250    0.4590   -3.8530 h1        1 2ER     -0.001300
     57 H5B        -2.4520    0.0920    7.7200 h1        1 2ER      0.034200
     58 H5BA       -4.2380   -0.2550    7.5640 h1        1 2ER      0.034200
     59 H93         1.9780    1.8930    4.4190 hn        1 2ER      0.311500
@<TRIPOS>BOND
     1    1    2 1   
     2    1    5 1   
     3    1   14 1   
     4    2    3 2   
     5    2   38 1   
     6    3    4 1   
     7    4    5 2   
     8    4    9 1   
     9    5    6 1   
    10    6    7 1   
    11    6   39 1   
    12    7    8 2   
    13    7   40 1   
    14    8   15 1   
    15    9   10 1   
    16    9   11 2   
    17   10   42 1   
    18   10   59 1   
    19   12   32 1   
    20   13   33 1   
    21   14   17 1   
    22   14   25 1   
    23   14   43 1   
    24   15   16 1   
    25   15   44 1   
    26   15   45 1   
    27   16   19 2   
    28   16   20 1   
    29   17   18 1   
    30   17   21 1   
    31   17   46 1   
    32   18   47 1   
    33   20   23 1   
    34   20   26 1   
    35   20   48 1   
    36   21   22 1   
    37   21   24 1   
    38   21   49 1   
    39   22   50 1   
    40   23   51 1   
    41   24   25 1   
    42   24   28 1   
    43   24   52 1   
    44   26   27 1   
    45   26   29 1   
    46   26   53 1   
    47   27   54 1   
    48   28   30 1   
    49   28   55 1   
    50   28   56 1   
    51   29   31 1   
    52   29   57 1   
    53   29   58 1   
    54   30   32 1   
    55   31   33 1   
    56   32   34 1   
    57   32   36 1   
    58   33   35 1   
    59   33   37 1   
    60   37   41 1   
@<TRIPOS>SUBSTRUCTURE
     1 2ER         1 TEMP              0 ****  ****    0 ROOT
