@<TRIPOS>MOLECULE
molecule
   59    60     1     0     0
SMALL
bcc


@<TRIPOS>ATOM
      1 N1           0.0000     0.0000     0.0000 na         1 2ER      -0.166900
      2 C2           1.3620     0.0000     0.0000 cc         1 2ER       0.488400
      3 N3           1.7960     0.0000     1.2250 nd         1 2ER      -0.749000
      4 C4           0.7340     0.0010     2.0760 cd         1 2ER       0.154800
      5 C5          -0.4140     0.0070     1.3000 cc         1 2ER       0.117000
      6 N6          -1.7210     0.0100     1.7540 nu         1 2ER      -0.696600
      7 C7          -2.7600     0.0530     0.8570 c2         1 2ER       0.462100
      8 N8          -3.9810     0.0340     1.2790 n2         1 2ER      -0.659900
      9 C9           0.7940     0.0010     3.5410 c          1 2ER       0.350600
     10 N9           1.9870     0.0020     4.1670 nz         1 2ER      -0.640400
     11 O9          -0.2340     0.0020     4.1910 o          1 2ER      -0.496100
     12 O'1          2.9730     0.4100    -5.8920 o          1 2ER      -0.881833
     13 O'L         -3.3310     0.7500     9.9350 o          1 2ER      -0.862500
     14 C1'         -0.8650    -0.0000    -1.1830 c3         1 2ER       0.239800
     15 C1B         -4.2600    -0.1670     2.7040 c3         1 2ER      -0.017200
     16 C2''        -4.8730     1.0840     3.2780 c          1 2ER       0.540100
     17 C2'         -1.3500     1.4370    -1.5040 c3         1 2ER       0.095100
     18 O2'         -2.5300     1.7550    -0.7640 oh         1 2ER      -0.538800
     19 O2B         -5.1270     2.0170     2.5560 o          1 2ER      -0.493100
     20 C3''        -5.1690     1.1690     4.7530 c3         1 2ER       0.055100
     21 C3'         -1.6570     1.3440    -3.0190 c3         1 2ER       0.079100
     22 O3'         -3.0530     1.1300    -3.2340 oh         1 2ER      -0.580800
     23 O3B         -6.1310     2.1990     4.9880 oh         1 2ER      -0.566800
     24 C4'         -0.8440     0.1250    -3.4940 c3         1 2ER       0.112100
     25 O4'         -0.1170    -0.3740    -2.3590 os         1 2ER      -0.385600
     26 C4B         -3.8810     1.4920     5.5140 c3         1 2ER       0.143100
     27 O4B         -2.8940     0.5020     5.2200 oh         1 2ER      -0.666800
     28 C5'          0.1340     0.5480    -4.5930 c3         1 2ER       0.223400
     29 C5B         -4.1640     1.5000     7.0170 c3         1 2ER       0.190400
     30 O6'          0.7990    -0.6060    -5.1090 os         1 2ER      -0.567200
     31 O6B         -2.9920     1.9150     7.7210 os         1 2ER      -0.594200
     32 P7'          1.9010    -0.5330    -6.2810 p5         1 2ER       1.179900
     33 P7B         -2.9300     2.0370     9.3250 p5         1 2ER       1.191900
     34 O8'          1.2050    -0.0230    -7.6400 o          1 2ER      -0.881833
     35 O8B         -3.9340     3.1980     9.8140 o          1 2ER      -0.862500
     36 O9'          2.5320    -1.9950    -6.5180 o          1 2ER      -0.881833
     37 O9B         -1.4290     2.4010     9.7770 o          1 2ER      -0.862500
     38 H2           1.9870    -0.0030    -0.8850 h5         1 2ER       0.121100
     39 HN6         -1.9090     0.0160     2.7370 hn         1 2ER       0.440800
     40 H7          -2.4050    -0.8830     1.2710 h5         1 2ER       0.222800
     41 HN9          1.8450    -0.0450     5.1560 hn         1 2ER       0.457467
     42 HN9A         2.5210    -0.7910     3.8690 hn         1 2ER       0.457467
     43 H1'         -1.7100    -0.6630    -1.0440 h2         1 2ER       0.118700
     44 H1B         -4.9490    -0.9950     2.8230 h1         1 2ER       0.064200
     45 H1BA        -3.3360    -0.3890     3.2250 h1         1 2ER       0.064200
     46 H2'         -0.5630     2.1580    -1.3160 h1         1 2ER       0.046700
     47 HO2'        -2.6720     2.6870    -0.7830 ho         1 2ER       0.390000
     48 H3''        -5.5630     0.2210     5.0980 h1         1 2ER       0.045700
     49 H3'         -1.3220     2.2410    -3.5260 h1         1 2ER       0.053700
     50 HO3'        -3.3610     1.7140    -3.9060 ho         1 2ER       0.396000
     51 HO3B        -7.0000     1.8370     4.9280 ho         1 2ER       0.393000
     52 H4'         -1.5140    -0.6400    -3.8660 h1         1 2ER       0.082700
     53 H4B         -3.5170     2.4660     5.2100 h1         1 2ER       0.059700
     54 HO4B        -2.1750     0.5850     5.8240 ho         1 2ER       0.447000
     55 H5'          0.8660     1.2320    -4.1810 h1         1 2ER       0.023700
     56 H5'A        -0.4100     1.0380    -5.3910 h1         1 2ER       0.023700
     57 H5B         -4.9740     2.1880     7.2280 h1         1 2ER       0.033200
     58 H5BA        -4.4440     0.5030     7.3370 h1         1 2ER       0.033200
     59 H93          2.4760     0.8490     3.9530 hn         1 2ER       0.457467
@<TRIPOS>BOND
     1     5     1 1
     2     2     1 1
     3     1    14 1
     4     3     2 2
     5     2    38 1
     6     4     3 1
     7     9     4 1
     8     4     5 2
     9     5     6 1
    10     7     6 1
    11     6    39 1
    12     7     8 2
    13     7    40 1
    14     8    15 1
    15    10     9 1
    16    11     9 2
    17    10    41 1
    18    10    42 1
    19    12    32 1
    20    13    33 1
    21    14    17 1
    22    14    25 1
    23    14    43 1
    24    15    16 1
    25    15    44 1
    26    15    45 1
    27    20    16 1
    28    16    19 2
    29    18    17 1
    30    17    21 1
    31    17    46 1
    32    18    47 1
    33    23    20 1
    34    20    26 1
    35    20    48 1
    36    24    21 1
    37    21    22 1
    38    21    49 1
    39    22    50 1
    40    23    51 1
    41    25    24 1
    42    24    28 1
    43    24    52 1
    44    29    26 1
    45    27    26 1
    46    26    53 1
    47    27    54 1
    48    28    30 1
    49    28    55 1
    50    28    56 1
    51    31    29 1
    52    29    57 1
    53    29    58 1
    54    30    32 1
    55    33    31 1
    56    34    32 1
    57    32    36 1
    58    35    33 1
    59    33    37 1
    60    59    10 1
@<TRIPOS>SUBSTRUCTURE
     1 2ER         1 TEMP              0 ****  ****    0 ROOT
