@<TRIPOS>MOLECULE
2ET
   43    44     1     0     0
SMALL
bcc


@<TRIPOS>ATOM
      1 C10          0.0000     0.0000     0.0000 c3         1 2ET       0.204100
      2 C15         -1.4320    -1.3250     3.8260 ca         1 2ET      -0.034000
      3 C17         -0.7280    -1.8280     1.5550 ca         1 2ET       0.211100
      4 C21         -1.1850    -4.5420     2.0030 cc         1 2ET      -0.275200
      5 C22         -1.4330    -3.6860     3.0280 cd         1 2ET       0.025600
      6 C02          2.0610    -0.7000    -2.2500 c          1 2ET       0.954600
      7 O03          1.7050    -1.7990    -1.8940 o          1 2ET      -0.888300
      8 C04          1.9970     0.4610    -1.2910 c3         1 2ET       0.001500
      9 C05          3.4000     1.0380    -1.0920 c3         1 2ET       0.002600
     10 C06          3.3230     2.2650    -0.1830 c3         1 2ET      -0.066700
     11 C07          4.7370     2.7550     0.1340 c3         1 2ET       0.004400
     12 C08          2.5450     3.3760    -0.8910 c3         1 2ET       0.004400
     13 N09          1.4690     0.0000     0.0000 n7         1 2ET      -0.601200
     14 C11         -0.5030    -0.4770     1.3380 ca         1 2ET      -0.125300
     15 C12         -0.7350     0.4310     2.3570 ca         1 2ET       0.192100
     16 O13         -0.5070     1.7540     2.1460 oh         1 2ET      -0.462100
     17 C14         -1.2010     0.0000     3.5980 ca         1 2ET      -0.223000
     18 C16         -1.1980    -2.2580     2.8090 ca         1 2ET      -0.205800
     19 O18         -0.5020    -2.7310     0.5770 os         1 2ET      -0.227200
     20 C19         -0.7160    -4.0420     0.7710 c          1 2ET       0.780800
     21 O20         -0.4970    -4.8200    -0.1410 o          1 2ET      -0.611500
     22 H1          -0.3610     1.0050    -0.1840 h1         1 2ET       0.026200
     23 H2          -0.3610    -0.6620    -0.7780 h1         1 2ET       0.026200
     24 H3          -1.7950    -1.6540     4.7930 ha         1 2ET       0.099000
     25 H4          -1.3490    -5.6050     2.1310 ha         1 2ET       0.132000
     26 H6           1.3460     1.2270    -1.6940 h1         1 2ET       0.031700
     27 H7           4.0360     0.2890    -0.6360 hc         1 2ET       0.023200
     28 H8           3.8110     1.3250    -2.0520 hc         1 2ET       0.023200
     29 H9           2.8170     2.0010     0.7380 hc         1 2ET       0.041700
     30 H10          5.2290     3.0560    -0.7830 hc         1 2ET      -0.006133
     31 H11          4.6840     3.6000     0.8090 hc         1 2ET      -0.006133
     32 H12          5.3000     1.9550     0.6000 hc         1 2ET      -0.006133
     33 H13          2.8200     4.3350    -0.4680 hc         1 2ET      -0.006133
     34 H14          2.7830     3.3660    -1.9480 hc         1 2ET      -0.006133
     35 H15          1.4820     3.2140    -0.7580 hc         1 2ET      -0.006133
     36 H16          1.8030    -0.9250     0.1860 hn         1 2ET       0.281800
     37 H18         -1.2340     2.2540     2.4790 ho         1 2ET       0.388000
     38 H19         -1.3780     0.7210     4.3870 ha         1 2ET       0.105000
     39 H20         -1.2310    -3.9330     5.1330 hc         1 2ET       0.010367
     40 H21         -2.8980    -3.7430     4.5720 hc         1 2ET       0.010367
     41 H22         -2.0450    -5.2710     4.3120 hc         1 2ET       0.010367
     42 C23         -1.9370    -4.1940     4.3550 c3         1 2ET       0.051100
     43 O01          2.5150    -0.5130    -3.4990 o          1 2ET      -0.888300
@<TRIPOS>BOND
     1     1    13 1   
     2     1    14 1   
     3     1    22 1   
     4     1    23 1   
     5     2    17 ar  
     6     2    18 ar  
     7     2    24 1   
     8     3    14 ar  
     9     3    18 ar  
    10     3    19 1   
    11     4     5 2   
    12     4    20 1   
    13     4    25 1   
    14     5    18 1   
    15     5    42 1   
    16     6     7 1   
    17     6     8 1   
    18     6    43 1   
    19     8     9 1   
    20     8    13 1   
    21     8    26 1   
    22     9    10 1   
    23     9    27 1   
    24     9    28 1   
    25    10    11 1   
    26    10    12 1   
    27    10    29 1   
    28    11    30 1   
    29    11    31 1   
    30    11    32 1   
    31    12    33 1   
    32    12    34 1   
    33    12    35 1   
    34    13    36 1   
    35    14    15 ar  
    36    15    16 1   
    37    15    17 ar  
    38    16    37 1   
    39    17    38 1   
    40    19    20 1   
    41    20    21 2   
    42    39    42 1   
    43    40    42 1   
    44    41    42 1   
@<TRIPOS>SUBSTRUCTURE
     1 2ET         1 TEMP              0 ****  ****    0 ROOT
