@<TRIPOS>MOLECULE
molecule
   46    48     1     0     0
SMALL
bcc


@<TRIPOS>ATOM
      1 N1           0.0000     0.0000     0.0000 n3         1 2EU      -0.822500
      2 C4           5.0190     2.0080     7.2660 c3         1 2EU       0.594400
      3 C5           1.4710     0.0000     0.0000 c3         1 2EU       0.234800
      4 C6          -0.6970     1.0100     0.8120 c3         1 2EU       0.234800
      5 C7           2.9500     1.5150     5.9920 ca         1 2EU      -0.153300
      6 C8           1.8770     1.2520     3.4550 ca         1 2EU       0.132600
      7 C10          1.9570     0.0000     1.4530 c3         1 2EU       0.153800
      8 C13         -0.7030     0.1260    -4.6830 cc         1 2EU      -0.185000
      9 C15          1.9600     2.3830     5.5680 ca         1 2EU      -0.059500
     10 C17          1.4230     2.2550     4.3030 ca         1 2EU      -0.174500
     11 C9          -0.2880    -0.5200    -3.5300 cd         1 2EU      -0.023000
     12 C12         -1.8590     0.7820    -4.5730 cd         1 2EU      -0.039100
     13 S2          -2.4940     0.5930    -2.9440 ss         1 2EU      -0.046800
     14 C2          -1.1110    -0.3930    -2.4870 cc         1 2EU      -0.274600
     15 S1          -0.8500    -1.1030    -0.8960 sy         1 2EU       1.447200
     16 O1           0.0150    -2.2140    -1.0900 o          1 2EU      -0.629800
     17 O2          -2.1310    -1.2120    -0.2910 o          1 2EU      -0.629800
     18 C11         -0.1250     0.9700     2.2330 c3         1 2EU       0.153800
     19 N2           1.3350     1.1190     2.1750 nh         1 2EU      -0.596000
     20 C16          2.8780     0.3890     3.8810 ca         1 2EU      -0.174500
     21 C14          3.4080     0.5190     5.1490 ca         1 2EU      -0.059500
     22 C3           3.3750     0.3390     8.1340 c3         1 2EU       0.594400
     23 F2           4.1480    -0.6500     7.5180 f          1 2EU      -0.209300
     24 F3           3.8010     0.5090     9.4560 f          1 2EU      -0.209300
     25 F1           2.0300    -0.0460     8.1240 f          1 2EU      -0.209300
     26 F5           5.1640     3.2140     6.5720 f          1 2EU      -0.209300
     27 F6           5.5620     2.1420     8.5490 f          1 2EU      -0.209300
     28 F4           5.6900     0.9910     6.5790 f          1 2EU      -0.209300
     29 O3           2.8490     2.6970     8.0750 oh         1 2EU      -0.552800
     30 H1           1.8340    -0.8870    -0.5040 h1         1 2EU       0.065950
     31 H2           1.8340     0.8870    -0.5050 h1         1 2EU       0.065950
     32 H3          -0.5380     1.9920     0.3850 h1         1 2EU       0.065950
     33 H4          -1.7560     0.7850     0.8410 h1         1 2EU       0.065950
     34 H5           1.6780    -0.9330     1.9270 h1         1 2EU       0.054950
     35 H6           3.0340     0.1130     1.4730 h1         1 2EU       0.054950
     36 H7          -0.1300     0.1040    -5.6020 ha         1 2EU       0.154000
     37 H8           1.6050     3.1640     6.2300 ha         1 2EU       0.157000
     38 H9           0.6480     2.9360     3.9710 ha         1 2EU       0.144500
     39 H10          0.6330    -1.0890    -3.4800 ha         1 2EU       0.161000
     40 H11         -2.3360     1.3430    -5.3680 h4         1 2EU       0.175000
     41 H12         -0.3720     0.0210     2.6940 h1         1 2EU       0.054950
     42 H13         -0.5480     1.7810     2.8140 h1         1 2EU       0.054950
     43 H14          3.2370    -0.3930     3.2220 ha         1 2EU       0.144500
     44 H15          4.1860    -0.1570     5.4830 ha         1 2EU       0.157000
     45 H16          3.2320     2.8060     8.9300 ho         1 2EU       0.430000
     46 C1           3.5340     1.6580     7.3740 c3         1 2EU       0.127100
@<TRIPOS>BOND
     1    16    15 2
     2    15    17 2
     3    15     1 1
     4    15    14 1
     5    13    14 1
     6    13    12 1
     7     3     1 1
     8     3     7 1
     9     1     4 1
    10    14    11 2
    11     7    19 1
    12    12     8 2
    13    11     8 1
    14     4    18 1
    15    19    18 1
    16    19     6 1
    17    20     6 ar
    18    20    21 ar
    19     6    10 ar
    20    21     5 ar
    21    10     9 ar
    22     5     9 ar
    23     5    46 1
    24    29    46 1
    25    25    22 1
    26    46    22 1
    27    46     2 1
    28    27     2 1
    29    22    23 1
    30    22    24 1
    31     2    26 1
    32     2    28 1
    33     3    30 1
    34     3    31 1
    35     4    32 1
    36     4    33 1
    37     7    34 1
    38     7    35 1
    39     8    36 1
    40     9    37 1
    41    10    38 1
    42    11    39 1
    43    12    40 1
    44    18    41 1
    45    18    42 1
    46    20    43 1
    47    21    44 1
    48    29    45 1
@<TRIPOS>SUBSTRUCTURE
     1 2EU         1 TEMP              0 ****  ****    0 ROOT
