@<TRIPOS>MOLECULE
molecule
   52    54     1     0     0
SMALL
bcc


@<TRIPOS>ATOM
      1 S1           0.0000     0.0000     0.0000 sy         1 2EV       1.439200
      2 N2           1.6560     0.0000     0.0000 n3         1 2EV      -0.825500
      3 C3           3.8570     0.6110     0.7230 c3         1 2EV      -0.142700
      4 C4           3.9770     0.0220    -0.7090 c3         1 2EV      -0.139700
      5 C5           4.9990     0.1500     1.5920 c          1 2EV       0.681100
      6 C6          -0.5220     1.6690     0.2150 ca         1 2EV      -0.313500
      7 C7           2.5160     0.0000     1.1970 c3         1 2EV       0.241800
      8 C8           2.5130    -0.0070    -1.1960 c3         1 2EV       0.237800
      9 N9           5.0060     0.4470     2.9070 n          1 2EV      -0.492800
     10 C10          4.8160     0.9160    -1.5860 c          1 2EV       0.677100
     11 N11          5.6140     1.5430    -6.1240 n2         1 2EV      -0.773100
     12 O12         -0.4020    -0.3800    -1.3100 o          1 2EV      -0.622300
     13 O13         -0.4010    -0.7000     1.1700 o          1 2EV      -0.622300
     14 C14          5.9560     0.8520    -5.1020 c2         1 2EV       0.413200
     15 C15         -0.2910     2.6000    -0.7810 ca         1 2EV       0.116400
     16 O16          5.9100    -0.4880     1.1090 o          1 2EV      -0.604100
     17 O17          5.2890     1.9380    -1.1330 o          1 2EV      -0.603100
     18 N18          5.0420     0.5800    -2.8710 ns         1 2EV      -0.582900
     19 O19          5.5070     1.8510     5.2160 os         1 2EV      -0.419600
     20 Cl1          0.5110     2.1250    -2.2460 cl         1 2EV      -0.077400
     21 C21         -1.1650     2.0470     1.3780 ca         1 2EV      -0.023000
     22 C22          3.9090     1.2140     3.5170 c3         1 2EV       0.065000
     23 C23          6.1090     0.0070     3.7760 c3         1 2EV       0.065000
     24 C24          5.8580     1.4490    -3.7230 c3         1 2EV       0.064700
     25 C25          6.6140     1.2190     4.5680 c3         1 2EV       0.120400
     26 C26          4.5160     2.3690     4.3200 c3         1 2EV       0.120400
     27 C27         -0.7000     3.9110    -0.6120 ca         1 2EV      -0.140000
     28 C28         -1.5760     3.3560     1.5470 ca         1 2EV      -0.151000
     29 C29         -1.3400     4.2890     0.5540 ca         1 2EV      -0.067000
     30 H1           3.7970     1.6930     0.6900 hc         1 2EV       0.105700
     31 H2           4.3850    -0.9810    -0.6740 hc         1 2EV       0.100700
     32 H3           2.0770     0.6140     1.9740 h1         1 2EV       0.057700
     33 H4           2.6690    -1.0130     1.5490 h1         1 2EV       0.057700
     34 H5           2.3340    -0.9070    -1.7710 h1         1 2EV       0.059200
     35 H6           2.3090     0.8690    -1.7990 h1         1 2EV       0.059200
     36 H7           5.6790     1.1460    -7.0410 hn         1 2EV       0.401400
     37 H8           6.3150    -0.1620    -5.2290 h4         1 2EV      -0.039200
     38 H9           4.6830    -0.2810    -3.2340 hn         1 2EV       0.315500
     39 H10         -1.3500     1.3170     2.1560 ha         1 2EV       0.162000
     40 H11          3.2660     1.6090     2.7400 h1         1 2EV       0.065200
     41 H12          3.3400     0.5720     4.1780 h1         1 2EV       0.065200
     42 H13          5.7520    -0.7520     4.4610 h1         1 2EV       0.065200
     43 H14          6.9130    -0.3910     3.1690 h1         1 2EV       0.065200
     44 H15          6.8510     1.5420    -3.2990 h1         1 2EV       0.075200
     45 H16          5.3990     2.4290    -3.7850 h1         1 2EV       0.075200
     46 H17          7.3290     0.8910     5.3120 h1         1 2EV       0.057700
     47 H18          7.0840     1.9220     3.8910 h1         1 2EV       0.057700
     48 H19          4.9770     3.0770     3.6420 h1         1 2EV       0.057700
     49 H20          3.7360     2.8610     4.8900 h1         1 2EV       0.057700
     50 H21         -0.5180     4.6410    -1.3910 ha         1 2EV       0.152000
     51 H22         -2.0780     3.6520     2.4600 ha         1 2EV       0.142000
     52 H23         -1.6610     5.3150     0.6870 ha         1 2EV       0.142000
@<TRIPOS>BOND
     1    20    15 1   
     2    11    14 2   
     3    14    24 1   
     4    17    10 2   
     5     8     2 1   
     6     8     4 1   
     7    15    27 ar  
     8    15     6 ar  
     9    27    29 ar  
    10    12     1 2   
    11    24    18 1   
    12    10    18 1   
    13    10     4 1   
    14     2     1 1   
    15     2     7 1   
    16     4     3 1   
    17     1     6 1   
    18     1    13 2   
    19     6    21 ar  
    20    29    28 ar  
    21     3     7 1   
    22     3     5 1   
    23    26    22 1   
    24    26    19 1   
    25    22     9 1   
    26    21    28 ar  
    27     5     9 1   
    28     5    16 2   
    29     9    23 1   
    30    19    25 1   
    31    25    23 1   
    32     3    30 1   
    33     4    31 1   
    34     7    32 1   
    35     7    33 1   
    36     8    34 1   
    37     8    35 1   
    38    11    36 1   
    39    14    37 1   
    40    18    38 1   
    41    21    39 1   
    42    22    40 1   
    43    22    41 1   
    44    23    42 1   
    45    23    43 1   
    46    24    44 1   
    47    24    45 1   
    48    25    46 1   
    49    25    47 1   
    50    26    48 1   
    51    26    49 1   
    52    27    50 1   
    53    28    51 1   
    54    29    52 1   
@<TRIPOS>SUBSTRUCTURE
     1 2EV         1 TEMP              0 ****  ****    0 ROOT
