@<TRIPOS>MOLECULE
molecule
   52    54     1     0     0
SMALL
bcc


@<TRIPOS>ATOM
      1 S1           0.0000     0.0000     0.0000 sy         1 2EW       1.440200
      2 N2           1.6560     0.0000     0.0000 n3         1 2EW      -0.830500
      3 C3           3.8570     0.6110     0.7230 c3         1 2EW      -0.141700
      4 C4           3.9770     0.0220    -0.7080 c3         1 2EW      -0.139700
      5 C5           4.9980     0.1510     1.5930 c          1 2EW       0.681100
      6 C6           2.5150     0.0000     1.1980 c3         1 2EW       0.241800
      7 C7           2.5120    -0.0080    -1.1940 c3         1 2EW       0.242800
      8 N8           5.0060     0.4490     2.9080 n          1 2EW      -0.491800
      9 C9           4.8130     0.9150    -1.5890 c          1 2EW       0.675100
     10 N10          5.4030     1.7150    -6.1310 n2         1 2EW      -0.774100
     11 O11         -0.4020    -0.5450    -1.2480 o          1 2EW      -0.629300
     12 O12         -0.4010    -0.5440     1.2510 o          1 2EW      -0.629300
     13 C13         -0.5220     1.6830    -0.0000 ca         1 2EW      -0.317500
     14 C14          5.7640     0.9630    -5.1610 c2         1 2EW       0.414200
     15 O15          5.9100    -0.4880     1.1110 o          1 2EW      -0.604100
     16 O16          5.3580     1.8910    -1.1180 o          1 2EW      -0.600100
     17 N17          4.9550     0.6300    -2.8980 ns         1 2EW      -0.584900
     18 O18          5.5060     1.8550     5.2170 os         1 2EW      -0.419600
     19 C19          3.9080     1.2160     3.5170 c3         1 2EW       0.065500
     20 C20          6.1080     0.0100     3.7770 c3         1 2EW       0.065500
     21 C21          5.7680     1.4980    -3.7520 c3         1 2EW       0.065700
     22 C22          6.6130     1.2230     4.5680 c3         1 2EW       0.120400
     23 C23          4.5140     2.3730     4.3200 c3         1 2EW       0.120400
     24 C24         -0.7200     2.3450     1.1970 ca         1 2EW      -0.029000
     25 C25         -0.7260     2.3430    -1.1980 ca         1 2EW      -0.029000
     26 C26         -1.1360     3.6630    -1.1990 ca         1 2EW      -0.149500
     27 C27         -1.1300     3.6660     1.1960 ca         1 2EW      -0.149500
     28 C28         -1.3400     4.3240    -0.0020 ca         1 2EW      -0.072000
     29 H1           3.7970     1.6920     0.6900 hc         1 2EW       0.103700
     30 H2           4.3850    -0.9810    -0.6730 hc         1 2EW       0.103700
     31 H3           2.0760     0.6150     1.9740 h1         1 2EW       0.058700
     32 H4           2.6670    -1.0130     1.5510 h1         1 2EW       0.058700
     33 H5           2.3330    -0.9090    -1.7690 h1         1 2EW       0.053200
     34 H6           2.3070     0.8680    -1.7990 h1         1 2EW       0.053200
     35 H7           5.4010     1.3590    -7.0670 hn         1 2EW       0.402400
     36 H8           6.0660    -0.0600    -5.3530 h4         1 2EW      -0.039200
     37 H9           4.5290    -0.1910    -3.2810 hn         1 2EW       0.315500
     38 H10          3.2650     1.6110     2.7400 h1         1 2EW       0.064950
     39 H11          3.3380     0.5740     4.1780 h1         1 2EW       0.064950
     40 H12          6.9130    -0.3890     3.1710 h1         1 2EW       0.064950
     41 H13          5.7510    -0.7480     4.4640 h1         1 2EW       0.064950
     42 H14          5.3560     2.5000    -3.7460 h1         1 2EW       0.075700
     43 H15          6.7840     1.5230    -3.3790 h1         1 2EW       0.075700
     44 H16          7.3280     0.8950     5.3130 h1         1 2EW       0.057700
     45 H17          7.0830     1.9250     3.8910 h1         1 2EW       0.057700
     46 H18          4.9750     3.0810     3.6420 h1         1 2EW       0.057700
     47 H19          3.7340     2.8640     4.8900 h1         1 2EW       0.057700
     48 H20         -0.5550     1.8290     2.1350 ha         1 2EW       0.148500
     49 H21         -0.5650     1.8250    -2.1360 ha         1 2EW       0.148500
     50 H22         -1.2980     4.1790    -2.1370 ha         1 2EW       0.138000
     51 H23         -1.2880     4.1850     2.1340 ha         1 2EW       0.138000
     52 H24         -1.6610     5.3580    -0.0030 ha         1 2EW       0.135000
@<TRIPOS>BOND
     1    10    14 2   
     2    14    21 1   
     3    21    17 1   
     4    17     9 1   
     5     9    16 2   
     6     9     4 1   
     7    15     5 2   
     8     4     7 1   
     9     4     3 1   
    10    19    23 1   
    11    19     8 1   
    12    23    18 1   
    13     5     3 1   
    14     5     8 1   
    15    12     1 2   
    16     7     2 1   
    17     3     6 1   
    18     8    20 1   
    19     1    11 2   
    20     1     2 1   
    21     1    13 1   
    22    18    22 1   
    23     2     6 1   
    24    22    20 1   
    25    13    25 ar  
    26    13    24 ar  
    27    25    26 ar  
    28    24    27 ar  
    29    26    28 ar  
    30    27    28 ar  
    31     3    29 1   
    32     4    30 1   
    33     6    31 1   
    34     6    32 1   
    35     7    33 1   
    36     7    34 1   
    37    10    35 1   
    38    14    36 1   
    39    17    37 1   
    40    19    38 1   
    41    19    39 1   
    42    20    40 1   
    43    20    41 1   
    44    21    42 1   
    45    21    43 1   
    46    22    44 1   
    47    22    45 1   
    48    23    46 1   
    49    23    47 1   
    50    24    48 1   
    51    25    49 1   
    52    26    50 1   
    53    27    51 1   
    54    28    52 1   
@<TRIPOS>SUBSTRUCTURE
     1 2EW         1 TEMP              0 ****  ****    0 ROOT
