@<TRIPOS>MOLECULE
molecule
   48    52     1     0     0
SMALL
bcc


@<TRIPOS>ATOM
      1 C1           0.0000     0.0000     0.0000 cp         1 2EX      -0.198300
      2 C2           1.3970     0.0000     0.0000 ca         1 2EX      -0.056000
      3 C3           2.0540     0.0000     1.2190 ca         1 2EX      -0.260300
      4 C4           1.3140     0.0010     2.3870 ca         1 2EX       0.462200
      5 N5          -0.0050     0.0010     2.3590 nb         1 2EX      -0.717000
      6 C6          -0.6750     0.0010     1.2230 ca         1 2EX       0.639500
      7 C7          -0.7540     0.0060    -1.2770 cp         1 2EX      -0.061000
      8 C8          -0.4380     0.9290    -2.2720 ca         1 2EX      -0.052000
      9 C9          -1.1430     0.9290    -3.4560 ca         1 2EX      -0.143000
     10 C10         -2.1670     0.0100    -3.6650 ca         1 2EX       0.192100
     11 C11         -2.4840    -0.9090    -2.6760 ca         1 2EX      -0.176300
     12 C12         -1.7770    -0.9150    -1.4900 ca         1 2EX      -0.064000
     13 O13         -2.8330     0.0400    -4.8490 os         1 2EX      -0.308900
     14 C14         -4.1030    -0.6090    -4.9190 c3         1 2EX       0.153100
     15 C15         -3.9470    -2.0290    -4.3520 c3         1 2EX      -0.122700
     16 C16         -3.5880    -1.9120    -2.8730 c3         1 2EX       0.104500
     17 C17         -4.5500    -0.7050    -6.3810 c3         1 2EX      -0.111400
     18 C18         -5.8520    -1.5070    -6.4570 c3         1 2EX       0.134400
     19 O19         -5.6480    -2.8010    -5.8850 os         1 2EX      -0.398600
     20 C20         -5.2730    -2.7770    -4.5060 c3         1 2EX       0.138400
     21 N21         -3.1980    -3.2180    -2.3330 n2         1 2EX      -0.514900
     22 C22         -4.0400    -3.5140    -1.3890 c2         1 2EX       0.444800
     23 N23         -4.9930    -2.5430    -1.2040 n          1 2EX      -0.431300
     24 C24         -4.8040    -1.5190    -2.0660 c          1 2EX       0.701500
     25 O25         -5.4650    -0.5080    -2.1670 o          1 2EX      -0.502500
     26 N26         -3.9810    -4.6730    -0.6540 nz         1 2EX      -0.724600
     27 C27         -6.0680    -2.6090    -0.2100 c3         1 2EX       0.073300
     28 F28         -2.0260     0.0020     1.2420 f          1 2EX      -0.228200
     29 H1           1.9520    -0.0010    -0.9300 ha         1 2EX       0.155000
     30 H2           3.1370    -0.0000     1.2570 ha         1 2EX       0.157000
     31 H3           1.8260     0.0010     3.3420 h4         1 2EX       0.042100
     32 H4           0.3010     1.6980    -2.0820 ha         1 2EX       0.157000
     33 H5          -0.8970     1.6470    -4.2290 ha         1 2EX       0.167000
     34 H6          -2.0120    -1.6460    -0.7260 ha         1 2EX       0.116000
     35 H7          -4.8350    -0.0570    -4.3420 h1         1 2EX       0.079700
     36 H8          -3.1630    -2.5540    -4.8830 hc         1 2EX       0.116700
     37 H9          -4.7170     0.2910    -6.7730 hc         1 2EX       0.079700
     38 H10         -3.7840    -1.2050    -6.9600 hc         1 2EX       0.079700
     39 H11         -6.6270    -0.9880    -5.9060 h1         1 2EX       0.067700
     40 H12         -6.1480    -1.6140    -7.4940 h1         1 2EX       0.067700
     41 H13         -5.1570    -3.7920    -4.1460 h1         1 2EX       0.043700
     42 H14         -6.0400    -2.2700    -3.9330 h1         1 2EX       0.043700
     43 H15         -3.9300    -4.4490     0.3200 hn         1 2EX       0.481133
     44 H16         -4.8010    -5.2210    -0.8280 hn         1 2EX       0.481133
     45 H17         -5.6470    -2.8270     0.7630 h1         1 2EX       0.071033
     46 H18         -6.7660    -3.3900    -0.4850 h1         1 2EX       0.071033
     47 H19         -6.5860    -1.6580    -0.1750 h1         1 2EX       0.071033
     48 H263        -3.1710    -5.1970    -0.9220 hn         1 2EX       0.481133
@<TRIPOS>BOND
     1    25    24 2   
     2    18    17 1   
     3    18    19 1   
     4    17    14 1   
     5    27    23 1   
     6    14    13 1   
     7    14    15 1   
     8    24    23 1   
     9    24    16 1   
    10    19    20 1   
    11    13    10 1   
    12    20    15 1   
    13    23    22 1   
    14    10     9 ar  
    15    10    11 ar  
    16    15    16 1   
    17     9     8 ar  
    18    16    11 1   
    19    16    21 1   
    20    11    12 ar  
    21     8     7 ar  
    22     2     3 ar  
    23     2     1 ar  
    24    12     7 ar  
    25     7     1 1   
    26    22    21 2   
    27    22    26 1   
    28     3     4 ar  
    29     1     6 ar  
    30     4     5 ar  
    31     6     5 ar  
    32     6    28 1   
    33     2    29 1   
    34     3    30 1   
    35     4    31 1   
    36     8    32 1   
    37     9    33 1   
    38    12    34 1   
    39    14    35 1   
    40    15    36 1   
    41    17    37 1   
    42    17    38 1   
    43    18    39 1   
    44    18    40 1   
    45    20    41 1   
    46    20    42 1   
    47    26    43 1   
    48    26    44 1   
    49    27    45 1   
    50    27    46 1   
    51    27    47 1   
    52    48    26 1   
@<TRIPOS>SUBSTRUCTURE
     1 2EX         1 TEMP              0 ****  ****    0 ROOT
