@<TRIPOS>MOLECULE
2EY
   41    44     1     0     0
SMALL
bcc


@<TRIPOS>ATOM
      1 Cl1          0.0000     0.0000     0.0000 cl         1 2EY      -0.004400
      2 C19          1.7360     0.0000     0.0000 ca         1 2EY      -0.025600
      3 C18          2.4270     0.0000     1.1980 ca         1 2EY      -0.086500
      4 C17          3.8090     0.0010     1.2020 ca         1 2EY      -0.072000
      5 C16          4.5040     0.0020    -0.0000 ca         1 2EY      -0.191200
      6 C21          3.8080     0.0020    -1.2020 ca         1 2EY      -0.072000
      7 C20          2.4270    -0.0050    -1.1990 ca         1 2EY      -0.086500
      8 N3           5.9060     0.0080    -0.0000 na         1 2EY       0.733300
      9 C15          6.7050     0.0090     1.1020 cc         1 2EY      -0.449600
     10 C14          7.9780     0.0150     0.6410 cd         1 2EY       0.258600
     11 N1           7.9000     0.0180    -0.6940 nd         1 2EY      -0.282000
     12 N2           6.6620     0.0090    -1.0430 nc         1 2EY      -0.387800
     13 C11          9.2370     0.0240     1.4700 c3         1 2EY       0.170800
     14 C12         10.1270    -1.1490     1.0570 c3         1 2EY      -0.035100
     15 O1           9.9370     1.2510     1.2590 os         1 2EY      -0.280900
     16 C1          10.7630     1.6650     2.2480 cc         1 2EY       0.241900
     17 C6          11.4290     2.9730     2.1750 ca         1 2EY      -0.131800
     18 C7          11.2320     3.8250     1.0860 ca         1 2EY      -0.023000
     19 C8          11.8680     5.0340     1.0480 ca         1 2EY      -0.146000
     20 C9          12.7070     5.4230     2.0830 ca         1 2EY      -0.039000
     21 C10         12.9150     4.5970     3.1670 ca         1 2EY      -0.163000
     22 C5          12.2780     3.3620     3.2260 ca         1 2EY      -0.051400
     23 N4          12.4660     2.5160     4.3000 ns         1 2EY       0.032900
     24 C3          11.8530     1.3210     4.3590 c          1 2EY       0.620700
     25 C2          10.9920     0.8810     3.3430 cd         1 2EY      -0.380200
     26 H1           1.8840    -0.0010     2.1360 ha         1 2EY       0.123000
     27 H2           4.3490     0.0010     2.1410 ha         1 2EY       0.129500
     28 H3           4.3480     0.0010    -2.1410 ha         1 2EY       0.129500
     29 H4           1.8840    -0.0050    -2.1370 ha         1 2EY       0.123000
     30 H5           6.3870     0.0050     2.1380 h4         1 2EY       0.167000
     31 H6           8.9790    -0.0700     2.5180 h1         1 2EY       0.028700
     32 H7          10.3710    -1.7430     1.9300 hc         1 2EY       0.023367
     33 H8          11.0390    -0.7710     0.6120 hc         1 2EY       0.023367
     34 H9           9.6020    -1.7650     0.3360 hc         1 2EY       0.023367
     35 H10         10.5780     3.5280     0.2740 ha         1 2EY       0.121000
     36 H11         11.7150     5.6960     0.2040 ha         1 2EY       0.110000
     37 H12         13.2040     6.3840     2.0390 ha         1 2EY       0.102000
     38 H13         13.5720     4.9080     3.9700 ha         1 2EY       0.114000
     39 H14         13.0710     2.7960     5.0460 hn         1 2EY       0.176500
     40 H15         10.5130    -0.0880     3.4230 ha         1 2EY       0.156000
     41 O2          12.0470     0.6020     5.3250 o          1 2EY      -0.702500
@<TRIPOS>BOND
     1     1     2 1   
     2     2     3 ar  
     3     2     7 ar  
     4     3     4 ar  
     5     3    26 1   
     6     4     5 ar  
     7     4    27 1   
     8     5     6 ar  
     9     5     8 1   
    10     6     7 ar  
    11     6    28 1   
    12     7    29 1   
    13     8     9 1   
    14     8    12 1   
    15     9    10 2   
    16     9    30 1   
    17    10    11 1   
    18    10    13 1   
    19    11    12 2   
    20    13    14 1   
    21    13    15 1   
    22    13    31 1   
    23    14    32 1   
    24    14    33 1   
    25    14    34 1   
    26    15    16 1   
    27    16    17 1   
    28    16    25 2   
    29    17    18 ar  
    30    17    22 ar  
    31    18    19 ar  
    32    18    35 1   
    33    19    20 ar  
    34    19    36 1   
    35    20    21 ar  
    36    20    37 1   
    37    21    22 ar  
    38    21    38 1   
    39    22    23 1   
    40    23    24 1   
    41    23    39 1   
    42    24    25 1   
    43    24    41 2   
    44    25    40 1   
@<TRIPOS>SUBSTRUCTURE
     1 2EY         1 TEMP              0 ****  ****    0 ROOT
