@<TRIPOS>MOLECULE
molecule
   41    44     1     0     0
SMALL
bcc


@<TRIPOS>ATOM
      1 Cl1          0.0000     0.0000     0.0000 cl         1 2EY      -0.091400
      2 C19          1.7360     0.0000     0.0000 ca         1 2EY       0.029400
      3 C18          2.4270     0.0000     1.1980 ca         1 2EY      -0.106000
      4 C17          3.8090     0.0010     1.2020 ca         1 2EY      -0.116000
      5 C16          4.5040     0.0020    -0.0000 ca         1 2EY       0.002800
      6 C21          3.8080     0.0020    -1.2020 ca         1 2EY      -0.116000
      7 C20          2.4270    -0.0050    -1.1990 ca         1 2EY      -0.106000
      8 N3           5.9060     0.0080    -0.0000 na         1 2EY       0.209300
      9 C15          6.7050     0.0090     1.1020 cc         1 2EY      -0.264600
     10 C14          7.9780     0.0150     0.6410 cd         1 2EY       0.276600
     11 N1           7.9000     0.0180    -0.6940 nd         1 2EY      -0.333000
     12 N2           6.6620     0.0090    -1.0430 nc         1 2EY      -0.193800
     13 C11          9.2370     0.0240     1.4700 c3         1 2EY       0.134800
     14 C12         10.1270    -1.1490     1.0570 c3         1 2EY      -0.116100
     15 O1           9.9370     1.2510     1.2590 os         1 2EY      -0.303900
     16 C1          10.7630     1.6650     2.2480 cd         1 2EY       0.227900
     17 C6          11.4290     2.9730     2.1750 ca         1 2EY      -0.130800
     18 C7          11.2320     3.8250     1.0860 ca         1 2EY      -0.050000
     19 C8          11.8680     5.0340     1.0480 ca         1 2EY      -0.173000
     20 C9          12.7070     5.4230     2.0830 ca         1 2EY      -0.069000
     21 C10         12.9150     4.5970     3.1670 ca         1 2EY      -0.190000
     22 C5          12.2780     3.3620     3.2260 ca         1 2EY       0.107600
     23 N4          12.4660     2.5160     4.3000 ns         1 2EY      -0.435100
     24 C3          11.8530     1.3210     4.3590 c          1 2EY       0.716700
     25 C2          10.9920     0.8810     3.3430 cc         1 2EY      -0.377200
     26 H1           1.8840    -0.0010     2.1360 ha         1 2EY       0.156000
     27 H2           4.3490     0.0010     2.1410 ha         1 2EY       0.158000
     28 H3           4.3480     0.0010    -2.1410 ha         1 2EY       0.158000
     29 H4           1.8840    -0.0050    -2.1370 ha         1 2EY       0.156000
     30 H5           6.3870     0.0050     2.1380 h4         1 2EY       0.188000
     31 H6           8.9790    -0.0700     2.5180 h1         1 2EY       0.061700
     32 H7          10.3710    -1.7430     1.9300 hc         1 2EY       0.057367
     33 H8          11.0390    -0.7710     0.6120 hc         1 2EY       0.057367
     34 H9           9.6020    -1.7650     0.3360 hc         1 2EY       0.057367
     35 H10         10.5780     3.5280     0.2740 ha         1 2EY       0.156000
     36 H11         11.7150     5.6960     0.2040 ha         1 2EY       0.138000
     37 H12         13.2040     6.3840     2.0390 ha         1 2EY       0.136000
     38 H13         13.5720     4.9080     3.9700 ha         1 2EY       0.139000
     39 H14         13.0710     2.7960     5.0460 hn         1 2EY       0.338500
     40 H15         10.5130    -0.0880     3.4230 ha         1 2EY       0.166000
     41 O2          12.0470     0.6020     5.3250 o          1 2EY      -0.656500
@<TRIPOS>BOND
     1    14    13 1
     2    41    24 2
     3    25    24 1
     4    25    16 2
     5    13    15 1
     6    13    10 1
     7    24    23 1
     8    15    16 1
     9    16    17 1
    10    23    22 1
    11    17    22 ar
    12    17    18 ar
    13    10    11 1
    14    10     9 2
    15    22    21 ar
    16    11    12 2
    17    18    19 ar
    18    21    20 ar
    19     9     8 1
    20    19    20 ar
    21    12     8 1
    22     8     5 1
    23     5     6 ar
    24     5     4 ar
    25     6     7 ar
    26     4     3 ar
    27     7     2 ar
    28     3     2 ar
    29     2     1 1
    30     3    26 1
    31     4    27 1
    32     6    28 1
    33     7    29 1
    34     9    30 1
    35    13    31 1
    36    14    32 1
    37    14    33 1
    38    14    34 1
    39    18    35 1
    40    19    36 1
    41    20    37 1
    42    21    38 1
    43    23    39 1
    44    25    40 1
@<TRIPOS>SUBSTRUCTURE
     1 2EY         1 TEMP              0 ****  ****    0 ROOT
