@<TRIPOS>MOLECULE
2EZ
   15    15     1     0     0
SMALL
bcc


@<TRIPOS>ATOM
      1 N1          0.2390    0.3390    0.1110 na        1 2EZ     -0.315900
      2 C2          1.5770   -0.0900    0.1870 cc        1 2EZ      0.392800
      3 N3          1.8740   -0.5040    1.4470 nd        1 2EZ     -0.665000
      4 C4          0.7110   -0.3360    2.1920 cd        1 2EZ      0.292200
      5 C5         -0.3130    0.1880    1.3810 cc        1 2EZ     -0.261600
      6 C6          2.4940   -0.0900   -0.9890 c3        1 2EZ     -0.107700
      7 C7          2.6210    1.2790   -1.6100 c3        1 2EZ     -0.096100
      8 HN1        -0.2120    0.6980   -0.6860 hn        1 2EZ      0.297700
      9 H4          0.6710   -0.5940    3.2490 h4        1 2EZ      0.041100
     10 H5         -1.3450    0.4500    1.6050 h4        1 2EZ      0.175000
     11 H61         3.5060   -0.4510   -0.6600 hc        1 2EZ      0.066200
     12 H62         2.1070   -0.8220   -1.7490 hc        1 2EZ      0.066200
     13 H71         2.9680    2.0250   -0.8550 hc        1 2EZ      0.038700
     14 H72         3.3650    1.2470   -2.4430 hc        1 2EZ      0.038700
     15 H73         1.6460    1.6270   -2.0270 hc        1 2EZ      0.038700
@<TRIPOS>BOND
     1    1    2 1   
     2    1    5 1   
     3    1    8 1   
     4    2    3 2   
     5    2    6 1   
     6    3    4 1   
     7    4    5 2   
     8    4    9 1   
     9    5   10 1   
    10    6    7 1   
    11    6   11 1   
    12    6   12 1   
    13    7   13 1   
    14    7   14 1   
    15    7   15 1   
@<TRIPOS>SUBSTRUCTURE
     1 2EZ         1 TEMP              0 ****  ****    0 ROOT
