@<TRIPOS>MOLECULE
molecule
   15    15     1     0     0
SMALL
bcc


@<TRIPOS>ATOM
      1 N1           0.0000     0.0000     0.0000 na         1 2EZ      -0.293900
      2 C2           1.3490     0.0000     0.0000 cc         1 2EZ       0.399800
      3 N3           1.7690     0.0000     1.2350 nd         1 2EZ      -0.697000
      4 C4           0.7110     0.0090     2.0610 cd         1 2EZ       0.314200
      5 C5          -0.4040     0.0060     1.3080 cc         1 2EZ      -0.283600
      6 C6           2.2270    -0.0080    -1.2250 c3         1 2EZ      -0.092700
      7 C7           3.1110     1.2400    -1.2260 c3         1 2EZ      -0.086100
      8 HN1         -0.5940    -0.0020    -0.8050 hn         1 2EZ       0.295700
      9 H4           0.7490     0.0130     3.1440 h4         1 2EZ       0.040100
     10 H5          -1.4260     0.0100     1.6680 h4         1 2EZ       0.172000
     11 H61          2.8520    -0.8930    -1.2160 hc         1 2EZ       0.052700
     12 H62          1.6070    -0.0120    -2.1130 hc         1 2EZ       0.052700
     13 H71          3.6370     1.3090    -2.1700 hc         1 2EZ       0.042367
     14 H72          2.4930     2.1200    -1.0920 hc         1 2EZ       0.042367
     15 H73          3.8280     1.1750    -0.4170 hc         1 2EZ       0.042367
@<TRIPOS>BOND
     1     1     2 1   
     2     1     5 1   
     3     1     8 1   
     4     2     3 2   
     5     2     6 1   
     6     3     4 1   
     7     4     5 2   
     8     4     9 1   
     9     5    10 1   
    10     6     7 1   
    11     6    11 1   
    12     6    12 1   
    13     7    13 1   
    14     7    14 1   
    15     7    15 1   
@<TRIPOS>SUBSTRUCTURE
     1 2EZ         1 TEMP              0 ****  ****    0 ROOT
