@<TRIPOS>MOLECULE
2F0
   49    50     1     0     0
SMALL
bcc


@<TRIPOS>ATOM
      1 O1           0.0000     0.0000     0.0000 o          1 2F0      -0.434100
      2 C11          1.2150     0.0000     0.0000 c          1 2F0       0.350700
      3 N3           1.8900     0.0000     1.1670 nz         1 2F0       0.200600
      4 C7           1.9550    -0.0060    -1.2800 ca         1 2F0      -0.215600
      5 C6           3.3500    -0.0110    -1.2830 ca         1 2F0      -0.143000
      6 C8           1.2590    -0.0120    -2.4910 ca         1 2F0       0.015400
      7 Cl1         -0.4770    -0.0110    -2.4970 cl         1 2F0       0.092600
      8 C9           1.9540    -0.0180    -3.6850 ca         1 2F0      -0.076000
      9 C10          3.3360    -0.0180    -3.6860 ca         1 2F0      -0.009000
     10 C5           4.0360    -0.0220    -2.4850 ca         1 2F0      -0.028400
     11 N2           5.4370    -0.0230    -2.4930 ns         1 2F0      -0.070100
     12 C4           6.1050     0.6220    -3.4700 c          1 2F0       0.570100
     13 O            5.4970     1.2800    -4.2910 o          1 2F0      -0.684100
     14 N1           7.4490     0.5340    -3.5370 ns         1 2F0      -0.192900
     15 C1           8.1760     1.2350    -4.5990 c3         1 2F0       0.088700
     16 C2           7.7260     0.7030    -5.9620 c3         1 2F0      -0.025100
     17 C3           7.8840     2.7340    -4.5150 c3         1 2F0      -0.025100
     18 C12          9.6560     1.0020    -4.4330 ca         1 2F0      -0.115300
     19 C17         10.4950     1.0980    -5.5230 ca         1 2F0      -0.059000
     20 C16         11.8650     0.8830    -5.3680 ca         1 2F0      -0.111900
     21 C18         12.7690     0.9850    -6.5300 ce         1 2F0       0.400900
     22 N4          12.2920     1.2770    -7.6970 n2         1 2F0      -0.398200
     23 O2          13.1580     1.3760    -8.8120 oh         1 2F0      -0.362500
     24 C19         14.2480     0.7510    -6.3580 c3         1 2F0      -0.056400
     25 C15         12.3760     0.5680    -4.1070 ca         1 2F0      -0.081000
     26 C14         11.5260     0.4740    -3.0250 ca         1 2F0      -0.093000
     27 C13         10.1710     0.6950    -3.1850 ca         1 2F0      -0.113000
     28 H1           2.4620    -0.8190     1.2220 hn         1 2F0       0.244467
     29 H2           1.2400     0.0040     1.9280 hn         1 2F0       0.244467
     30 H3           3.8950    -0.0150    -0.3460 ha         1 2F0       0.085000
     31 H4           1.4140    -0.0180    -4.6240 ha         1 2F0       0.142000
     32 H5           3.8750    -0.0240    -4.6260 ha         1 2F0       0.165000
     33 H6           5.9410    -0.5240    -1.7890 hn         1 2F0       0.168500
     34 H7           7.9460    -0.0380    -2.8840 hn         1 2F0       0.181500
     35 H8           8.0310    -0.3320    -6.0640 hc         1 2F0       0.024867
     36 H9           6.6470     0.7700    -6.0370 hc         1 2F0       0.024867
     37 H10          8.1800     1.2930    -6.7480 hc         1 2F0       0.024867
     38 H11          7.0030     2.9640    -5.1030 hc         1 2F0       0.024867
     39 H12          8.7300     3.2890    -4.9010 hc         1 2F0       0.024867
     40 H13          7.7110     3.0110    -3.4820 hc         1 2F0       0.024867
     41 H14         10.0990     1.3960    -6.4870 ha         1 2F0       0.138000
     42 H15         12.6580     1.5960    -9.5800 ho         1 2F0       0.419000
     43 H16         14.6450     1.4620    -5.6440 hc         1 2F0       0.024700
     44 H17         14.4140    -0.2560    -5.9960 hc         1 2F0       0.024700
     45 H18         14.7470     0.8800    -7.3110 hc         1 2F0       0.024700
     46 H19         13.4390     0.3970    -3.9800 ha         1 2F0       0.118000
     47 H20         11.9230     0.2330    -2.0460 ha         1 2F0       0.106000
     48 H21          9.5080     0.6200    -2.3320 ha         1 2F0       0.094000
     49 H33          2.4680     0.8150     1.2190 hn         1 2F0       0.244467
@<TRIPOS>BOND
     1     1     2 2   
     2     2     3 1   
     3     2     4 1   
     4     3    28 1   
     5     3    29 1   
     6     3    49 1   
     7     4     5 ar  
     8     4     6 ar  
     9     5    10 ar  
    10     5    30 1   
    11     6     7 1   
    12     6     8 ar  
    13     8     9 ar  
    14     8    31 1   
    15     9    10 ar  
    16     9    32 1   
    17    10    11 1   
    18    11    12 1   
    19    11    33 1   
    20    12    13 2   
    21    12    14 1   
    22    14    15 1   
    23    14    34 1   
    24    15    16 1   
    25    15    17 1   
    26    15    18 1   
    27    16    35 1   
    28    16    36 1   
    29    16    37 1   
    30    17    38 1   
    31    17    39 1   
    32    17    40 1   
    33    18    19 ar  
    34    18    27 ar  
    35    19    20 ar  
    36    19    41 1   
    37    20    21 1   
    38    20    25 ar  
    39    21    22 2   
    40    21    24 1   
    41    22    23 1   
    42    23    42 1   
    43    24    43 1   
    44    24    44 1   
    45    24    45 1   
    46    25    26 ar  
    47    25    46 1   
    48    26    27 ar  
    49    26    47 1   
    50    27    48 1   
@<TRIPOS>SUBSTRUCTURE
     1 2F0         1 TEMP              0 ****  ****    0 ROOT
