@<TRIPOS>MOLECULE
molecule
   49    50     1     0     0
SMALL
bcc


@<TRIPOS>ATOM
      1 O1           0.0000     0.0000     0.0000 o          1 2F0      -0.402100
      2 C11          1.2150     0.0000     0.0000 c          1 2F0       0.500700
      3 N3           1.8900     0.0000     1.1670 nz         1 2F0      -0.678400
      4 C7           1.9550    -0.0060    -1.2800 ca         1 2F0      -0.195600
      5 C6           3.3500    -0.0110    -1.2830 ca         1 2F0      -0.165000
      6 C8           1.2590    -0.0120    -2.4910 ca         1 2F0       0.090400
      7 Cl1         -0.4770    -0.0110    -2.4970 cl         1 2F0      -0.022400
      8 C9           1.9540    -0.0180    -3.6850 ca         1 2F0      -0.102000
      9 C10          3.3360    -0.0180    -3.6860 ca         1 2F0      -0.043000
     10 C5           4.0360    -0.0220    -2.4850 ca         1 2F0       0.110600
     11 N2           5.4370    -0.0230    -2.4930 ns         1 2F0      -0.501100
     12 C4           6.1050     0.6220    -3.4700 c          1 2F0       0.783100
     13 O            5.4970     1.2800    -4.2910 o          1 2F0      -0.639100
     14 N1           7.4490     0.5340    -3.5370 ns         1 2F0      -0.578900
     15 C1           8.1760     1.2350    -4.5990 c3         1 2F0       0.189700
     16 C2           7.7260     0.7030    -5.9620 c3         1 2F0      -0.102600
     17 C3           7.8840     2.7340    -4.5150 c3         1 2F0      -0.102600
     18 C12          9.6560     1.0020    -4.4330 ca         1 2F0      -0.104300
     19 C17         10.4950     1.0980    -5.5230 ca         1 2F0      -0.081000
     20 C16         11.8650     0.8830    -5.3680 ca         1 2F0      -0.108900
     21 C18         12.7690     0.9850    -6.5300 ce         1 2F0       0.425900
     22 N4          12.2920     1.2770    -7.6970 n2         1 2F0      -0.444200
     23 O2          13.1580     1.3760    -8.8120 oh         1 2F0      -0.380500
     24 C19         14.2480     0.7510    -6.3580 c3         1 2F0      -0.167400
     25 C15         12.3760     0.5680    -4.1070 ca         1 2F0      -0.100000
     26 C14         11.5260     0.4740    -3.0250 ca         1 2F0      -0.124000
     27 C13         10.1710     0.6950    -3.1850 ca         1 2F0      -0.129000
     28 H1           2.4670     0.8160     1.2190 hn         1 2F0       0.475800
     29 H2           1.2400     0.0030     1.9280 hn         1 2F0       0.475800
     30 H3           3.8950    -0.0150    -0.3460 ha         1 2F0       0.112000
     31 H4           1.4140    -0.0180    -4.6240 ha         1 2F0       0.183000
     32 H5           3.8750    -0.0240    -4.6260 ha         1 2F0       0.201000
     33 H6           5.9410    -0.5290    -1.7920 hn         1 2F0       0.325500
     34 H7           7.9460    -0.0410    -2.8870 hn         1 2F0       0.317500
     35 H8           8.0310    -0.3320    -6.0640 hc         1 2F0       0.054367
     36 H9           8.1800     1.2930    -6.7480 hc         1 2F0       0.054367
     37 H10          6.6470     0.7700    -6.0370 hc         1 2F0       0.054367
     38 H11          7.0060     2.9640    -5.1070 hc         1 2F0       0.054367
     39 H12          7.7060     3.0100    -3.4830 hc         1 2F0       0.054367
     40 H13          8.7320     3.2890    -4.8970 hc         1 2F0       0.054367
     41 H14         10.0990     1.3980    -6.4860 ha         1 2F0       0.161000
     42 H15         12.6580     1.5960    -9.5800 ho         1 2F0       0.433000
     43 H16         14.7450     0.8670    -7.3140 hc         1 2F0       0.061033
     44 H17         14.4140    -0.2510    -5.9840 hc         1 2F0       0.061033
     45 H18         14.6470     1.4710    -5.6540 hc         1 2F0       0.061033
     46 H19         13.4390     0.3970    -3.9800 ha         1 2F0       0.145000
     47 H20         11.9230     0.2330    -2.0460 ha         1 2F0       0.137000
     48 H21          9.5080     0.6200    -2.3320 ha         1 2F0       0.116000
     49 H33          2.4630    -0.8190     1.2220 hn         1 2F0       0.475800
@<TRIPOS>BOND
     1    16    15 1   
     2    27    26 ar  
     3    27    18 ar  
     4    15    18 1   
     5    15    17 1   
     6    15    14 1   
     7    26    25 ar  
     8    18    19 ar  
     9    25    20 ar  
    10    19    20 ar  
    11    14    12 1   
    12    20    21 1   
    13    21    22 2   
    14    21    24 1   
    15    22    23 1   
    16    12    13 2   
    17    12    11 1   
    18    11    10 1   
    19    10     9 ar  
    20    10     5 ar  
    21     9     8 ar  
    22     5     4 ar  
    23     8     6 ar  
    24     4     6 ar  
    25     4     2 1   
    26     6     7 1   
    27     3     2 1   
    28     2     1 2   
    29     3    28 1   
    30     3    29 1   
    31     5    30 1   
    32     8    31 1   
    33     9    32 1   
    34    11    33 1   
    35    14    34 1   
    36    16    35 1   
    37    16    36 1   
    38    16    37 1   
    39    17    38 1   
    40    17    39 1   
    41    17    40 1   
    42    19    41 1   
    43    23    42 1   
    44    24    43 1   
    45    24    44 1   
    46    24    45 1   
    47    25    46 1   
    48    26    47 1   
    49    27    48 1   
    50    49     3 1   
@<TRIPOS>SUBSTRUCTURE
     1 2F0         1 TEMP              0 ****  ****    0 ROOT
