@<TRIPOS>MOLECULE
molecule
   44    45     1     0     0
SMALL
bcc


@<TRIPOS>ATOM
      1 O            0.0000     0.0000     0.0000 o          1 2F1      -0.647100
      2 C            1.2160     0.0000     0.0000 c          1 2F1       0.784100
      3 N1           1.8900     0.0000     1.1670 ns         1 2F1      -0.494100
      4 C4           1.1960     0.1090     2.3770 ca         1 2F1       0.089600
      5 C5           1.6710    -0.5340     3.5120 ca         1 2F1      -0.148000
      6 C6           0.9830    -0.4250     4.7050 ca         1 2F1      -0.085000
      7 C9           0.0330     0.8650     2.4460 ca         1 2F1      -0.148000
      8 C8          -0.6510     0.9710     3.6410 ca         1 2F1      -0.085000
      9 C7          -0.1790     0.3240     4.7690 ca         1 2F1      -0.038900
     10 Br1         -1.1180     0.4710     6.4040 br         1 2F1      -0.101100
     11 N2           1.8900    -0.0060    -1.1680 ns         1 2F1      -0.595900
     12 C12          1.1560    -0.0110    -2.4360 c3         1 2F1       0.191700
     13 C23          0.2540    -1.2450    -2.4980 c3         1 2F1      -0.101100
     14 C22          0.2990     1.2520    -2.5350 c3         1 2F1      -0.101100
     15 C13          2.1340    -0.0460    -3.5820 ca         1 2F1      -0.088300
     16 C14          3.4000    -0.5730    -3.3930 ca         1 2F1      -0.135000
     17 C15          4.3030    -0.6090    -4.4390 ca         1 2F1      -0.123000
     18 C16          3.9490    -0.1190    -5.6790 ca         1 2F1      -0.116000
     19 C17          2.6740     0.4150    -5.8760 ca         1 2F1      -0.045800
     20 C18          1.7650     0.4420    -4.8180 ca         1 2F1      -0.108000
     21 C19          2.2870     0.9420    -7.2010 ce         1 2F1      -0.080400
     22 C20          1.3230     0.3520    -7.8940 c2         1 2F1      -0.210000
     23 C21          2.9870     2.1510    -7.7660 c3         1 2F1      -0.049900
     24 H1           2.8900    -0.0520     1.1670 hn         1 2F1       0.318500
     25 H2           2.5800    -1.1200     3.4620 ha         1 2F1       0.151500
     26 H3           1.3520    -0.9280     5.5910 ha         1 2F1       0.145500
     27 H4          -0.3370     1.3720     1.5630 ha         1 2F1       0.151500
     28 H5          -1.5590     1.5590     3.6940 ha         1 2F1       0.145500
     29 H6           2.8890     0.0410    -1.1690 hn         1 2F1       0.312500
     30 H7          -0.7120    -1.0080    -2.0700 hc         1 2F1       0.050867
     31 H8           0.1270    -1.5490    -3.5300 hc         1 2F1       0.050867
     32 H9           0.7090    -2.0530    -1.9370 hc         1 2F1       0.050867
     33 H10          0.9420     2.1180    -2.6390 hc         1 2F1       0.050867
     34 H11         -0.3510     1.1810    -3.3990 hc         1 2F1       0.050867
     35 H12         -0.3010     1.3530    -1.6390 hc         1 2F1       0.050867
     36 H13          3.6840    -0.9600    -2.4220 ha         1 2F1       0.125000
     37 H14          5.2920    -1.0240    -4.2850 ha         1 2F1       0.131000
     38 H15          4.6580    -0.1450    -6.4970 ha         1 2F1       0.136000
     39 H16          0.7740     0.8550    -4.9650 ha         1 2F1       0.143000
     40 H17          1.0390     0.7390    -8.8660 ha         1 2F1       0.118000
     41 H18          0.8180    -0.5170    -7.4890 ha         1 2F1       0.118000
     42 H19          3.5850     2.6160    -6.9920 hc         1 2F1       0.044033
     43 H20          2.2510     2.8580    -8.1280 hc         1 2F1       0.044033
     44 H21          3.6290     1.8470    -8.5840 hc         1 2F1       0.044033
@<TRIPOS>BOND
     1    13    12 1
     2    16    17 ar
     3    16    15 ar
     4    17    18 ar
     5    14    12 1
     6    12    15 1
     7    12    11 1
     8    15    20 ar
     9    18    19 ar
    10    20    19 ar
    11    19    21 1
    12    11     2 1
    13    21    22 2
    14    21    23 1
    15     2     1 2
    16     2     3 1
    17     3     4 1
    18     4     5 ar
    19     4     7 ar
    20     5     6 ar
    21     7     8 ar
    22     6     9 ar
    23     8     9 ar
    24     9    10 1
    25     3    24 1
    26     5    25 1
    27     6    26 1
    28     7    27 1
    29     8    28 1
    30    11    29 1
    31    13    30 1
    32    13    31 1
    33    13    32 1
    34    14    33 1
    35    14    34 1
    36    14    35 1
    37    16    36 1
    38    17    37 1
    39    18    38 1
    40    20    39 1
    41    22    40 1
    42    22    41 1
    43    23    42 1
    44    23    43 1
    45    23    44 1
@<TRIPOS>SUBSTRUCTURE
     1 2F1         1 TEMP              0 ****  ****    0 ROOT
