@<TRIPOS>MOLECULE
2F1
   44    45     1     0     0
SMALL
bcc


@<TRIPOS>ATOM
      1 O            0.0000     0.0000     0.0000 o          1 2F1      -0.693100
      2 C            1.2160     0.0000     0.0000 c          1 2F1       0.572100
      3 N1           1.8900     0.0000     1.1670 ns         1 2F1      -0.056100
      4 C4           1.1960     0.1090     2.3770 ca         1 2F1      -0.061400
      5 C5           1.6710    -0.5340     3.5120 ca         1 2F1      -0.119000
      6 C6           0.9830    -0.4250     4.7050 ca         1 2F1      -0.063000
      7 C9           0.0330     0.8650     2.4460 ca         1 2F1      -0.119000
      8 C8          -0.6510     0.9710     3.6410 ca         1 2F1      -0.063000
      9 C7          -0.1790     0.3240     4.7690 ca         1 2F1       0.018100
     10 Br1         -1.1180     0.4710     6.4040 br         1 2F1      -0.137100
     11 N2           1.8900    -0.0060    -1.1680 ns         1 2F1      -0.221900
     12 C12          1.1560    -0.0110    -2.4360 c3         1 2F1       0.093700
     13 C23          0.2540    -1.2450    -2.4980 c3         1 2F1      -0.026600
     14 C22          0.2990     1.2520    -2.5350 c3         1 2F1      -0.026600
     15 C13          2.1340    -0.0460    -3.5820 ca         1 2F1      -0.097300
     16 C14          3.4000    -0.5730    -3.3930 ca         1 2F1      -0.117000
     17 C15          4.3030    -0.6090    -4.4390 ca         1 2F1      -0.092000
     18 C16          3.9490    -0.1190    -5.6790 ca         1 2F1      -0.092000
     19 C17          2.6740     0.4150    -5.8760 ca         1 2F1      -0.037800
     20 C18          1.7650     0.4420    -4.8180 ca         1 2F1      -0.084000
     21 C19          2.2870     0.9420    -7.2010 ce         1 2F1      -0.084400
     22 C20          1.3230     0.3520    -7.8940 c2         1 2F1      -0.160000
     23 C21          2.9870     2.1510    -7.7660 c3         1 2F1       0.062100
     24 H1           2.8880    -0.0820     1.1680 hn         1 2F1       0.161500
     25 H2           2.5800    -1.1200     3.4620 ha         1 2F1       0.126500
     26 H3           1.3520    -0.9280     5.5910 ha         1 2F1       0.116000
     27 H4          -0.3370     1.3720     1.5630 ha         1 2F1       0.126500
     28 H5          -1.5590     1.5590     3.6940 ha         1 2F1       0.116000
     29 H6           2.8890     0.0430    -1.1690 hn         1 2F1       0.178500
     30 H7           0.1430    -1.5600    -3.5280 hc         1 2F1       0.022700
     31 H8           0.7000    -2.0470    -1.9220 hc         1 2F1       0.022700
     32 H9          -0.7190    -1.0030    -2.0870 hc         1 2F1       0.022700
     33 H10          0.9420     2.1180    -2.6360 hc         1 2F1       0.022700
     34 H11         -0.3030     1.3520    -1.6400 hc         1 2F1       0.022700
     35 H12         -0.3490     1.1820    -3.4010 hc         1 2F1       0.022700
     36 H13          3.6840    -0.9600    -2.4220 ha         1 2F1       0.104000
     37 H14          5.2920    -1.0240    -4.2850 ha         1 2F1       0.103000
     38 H15          4.6580    -0.1450    -6.4970 ha         1 2F1       0.109000
     39 H16          0.7740     0.8550    -4.9650 ha         1 2F1       0.123000
     40 H17          0.8190    -0.5170    -7.4890 ha         1 2F1       0.090000
     41 H18          1.0400     0.7390    -8.8660 ha         1 2F1       0.090000
     42 H19          3.5480     2.6430    -6.9810 hc         1 2F1       0.008367
     43 H20          3.6630     1.8420    -8.5540 hc         1 2F1       0.008367
     44 H21          2.2530     2.8380    -8.1690 hc         1 2F1       0.008367
@<TRIPOS>BOND
     1     1     2 2   
     2     2     3 1   
     3     2    11 1   
     4     3     4 1   
     5     3    24 1   
     6     4     5 ar  
     7     4     7 ar  
     8     5     6 ar  
     9     5    25 1   
    10     6     9 ar  
    11     6    26 1   
    12     7     8 ar  
    13     7    27 1   
    14     8     9 ar  
    15     8    28 1   
    16     9    10 1   
    17    11    12 1   
    18    11    29 1   
    19    12    13 1   
    20    12    14 1   
    21    12    15 1   
    22    13    30 1   
    23    13    31 1   
    24    13    32 1   
    25    14    33 1   
    26    14    34 1   
    27    14    35 1   
    28    15    16 ar  
    29    15    20 ar  
    30    16    17 ar  
    31    16    36 1   
    32    17    18 ar  
    33    17    37 1   
    34    18    19 ar  
    35    18    38 1   
    36    19    20 ar  
    37    19    21 1   
    38    20    39 1   
    39    21    22 2   
    40    21    23 1   
    41    22    40 1   
    42    22    41 1   
    43    23    42 1   
    44    23    43 1   
    45    23    44 1   
@<TRIPOS>SUBSTRUCTURE
     1 2F1         1 TEMP              0 ****  ****    0 ROOT
