@<TRIPOS>MOLECULE
molecule
    9     8     1     0     0
SMALL
bcc


@<TRIPOS>ATOM
      1 C1           0.0000     0.0000     0.0000 c3         1 2F2       0.128700
      2 O            1.4290     0.0000     0.0000 os         1 2F2      -0.430600
      3 C            2.0120     0.0000     1.3050 c3         1 2F2       0.128700
      4 H1          -0.3610     0.8840     0.5110 h1         1 2F2       0.028700
      5 H2          -0.3610    -0.8850     0.5110 h1         1 2F2       0.028700
      6 H3          -0.3610     0.0000    -1.0210 h1         1 2F2       0.028700
      7 H4           1.6920     0.8850     1.8430 h1         1 2F2       0.028700
      8 H5           1.6920    -0.8840     1.8430 h1         1 2F2       0.028700
      9 H6           3.0910    -0.0000     1.2190 h1         1 2F2       0.028700
@<TRIPOS>BOND
     1     3     2 1
     2     1     2 1
     3     1     4 1
     4     1     5 1
     5     1     6 1
     6     3     7 1
     7     3     8 1
     8     3     9 1
@<TRIPOS>SUBSTRUCTURE
     1 2F2         1 TEMP              0 ****  ****    0 ROOT
