@<TRIPOS>MOLECULE
molecule
   49    53     1     0     0
SMALL
bcc


@<TRIPOS>ATOM
      1 C1           0.0000     0.0000     0.0000 ca         1 2F3       0.430600
      2 C2           1.4170     0.0000     0.0000 ca         1 2F3      -0.166300
      3 C3           2.1110     0.0000     1.2200 ca         1 2F3      -0.086000
      4 C7           1.3600    -0.0010    -2.3790 ca         1 2F3      -0.216600
      5 C8           2.1000    -0.0000    -1.2320 ca         1 2F3      -0.025000
      6 C9          -0.0330    -0.0010    -2.3100 ca         1 2F3       0.545300
      7 C10          5.2950    -3.8450    -4.0240 cc         1 2F3      -0.056200
      8 C11          2.2920    -4.6970    -5.1450 ca         1 2F3      -0.062000
      9 C12          0.9930    -4.8070    -5.5500 ca         1 2F3      -0.163300
     10 C13          2.7590    -3.4860    -4.6280 ca         1 2F3      -0.089800
     11 C14          1.8910    -2.3830    -4.5260 ca         1 2F3      -0.029200
     12 C15          3.9040    -1.7150    -3.7410 cc         1 2F3      -0.028300
     13 C16          4.0610    -3.0420    -4.1170 cd         1 2F3      -0.109200
     14 C19          4.9480    -0.8620    -3.1780 c          1 2F3       0.897800
     15 C20          2.0480    -0.0010    -3.7210 c3         1 2F3       0.077600
     16 C21          6.2170    -3.8770    -5.1010 c          1 2F3       0.692700
     17 C22          7.6100    -5.3250    -3.8760 cc         1 2F3      -0.029400
     18 C24          5.5780    -4.5780    -2.8770 cd         1 2F3      -0.056000
     19 C4           1.4150     0.0000     2.3900 ca         1 2F3      -0.150000
     20 C5           0.0220     0.0000     2.3930 ca         1 2F3      -0.124000
     21 C6          -0.6830    -0.0050     1.2280 ca         1 2F3      -0.174300
     22 N1          -0.6660    -0.0010    -1.1600 nb         1 2F3      -0.705000
     23 N2           2.5970    -1.3340    -3.9870 na         1 2F3      -0.039400
     24 C17          0.1310    -3.7200    -5.4580 ca         1 2F3       0.119900
     25 C18          0.5690    -2.5170    -4.9450 ca         1 2F3      -0.184000
     26 O1           4.7050     0.4480    -2.9640 o          1 2F3      -0.821800
     27 N3           7.3410    -4.6120    -4.9980 ns         1 2F3      -0.411100
     28 C23          6.7550    -5.3270    -2.8240 cd         1 2F3      -0.225000
     29 O2           5.9920    -3.2430    -6.1180 o          1 2F3      -0.650500
     30 O3           6.0360    -1.3310    -2.9040 o          1 2F3      -0.821800
     31 F1          -1.1520    -3.8460    -5.8640 f          1 2F3      -0.161900
     32 H1           3.1940    -0.0000     1.2300 ha         1 2F3       0.146000
     33 H2           3.1820     0.0010    -1.2680 ha         1 2F3       0.208000
     34 H4           2.9580    -5.5480    -5.2190 ha         1 2F3       0.127000
     35 H5           2.8510     0.7260    -3.7160 h1         1 2F3       0.101200
     36 H6           1.3330     0.2560    -4.4930 h1         1 2F3       0.101200
     37 H7           8.5210    -5.9080    -3.8220 h4         1 2F3       0.129000
     38 H8           4.8900    -4.5750    -2.0390 ha         1 2F3       0.139000
     39 H9           1.9520     0.0040     3.3310 ha         1 2F3       0.122000
     40 H10         -0.5090     0.0000     3.3370 ha         1 2F3       0.120000
     41 H11         -1.7660    -0.0050     1.2480 ha         1 2F3       0.140000
     42 H12         -0.1100    -1.6760    -4.8770 ha         1 2F3       0.145000
     43 H14          7.9900    -4.6300    -5.7600 hn         1 2F3       0.319500
     44 H15          6.9890    -5.9030    -1.9380 ha         1 2F3       0.128000
     45 H16         -0.3310    -6.4740    -5.4940 hc         1 2F3       0.033033
     46 H17          0.1470    -5.9700    -7.1210 hc         1 2F3       0.033033
     47 H18          1.2920    -6.8440    -6.0930 hc         1 2F3       0.033033
     48 Cl1         -0.9540    -0.0030    -3.7810 cl         1 2F3      -0.171000
     49 C25          0.4900    -6.1160    -6.1040 c3         1 2F3      -0.031800
@<TRIPOS>BOND
     1    19    20 ar
     2    19     3 ar
     3    20    21 ar
     4     3     2 ar
     5    21     1 ar
     6     2     1 ar
     7     2     5 ar
     8     1    22 ar
     9     5     4 ar
    10    30    14 1
    11    22     6 ar
    12     4     6 ar
    13     4    15 1
    14    26    14 1
    15    14    12 1
    16    15    23 1
    17    29    16 2
    18    12    23 1
    19    12    13 2
    20    23    11 1
    21    16    27 1
    22    16     7 1
    23    27    17 1
    24    13     7 1
    25    13    10 1
    26     7    18 2
    27    11    25 ar
    28    11    10 ar
    29    17    28 2
    30    25    24 ar
    31    10     8 ar
    32    18    28 1
    33    24    31 1
    34    24     9 ar
    35     8     9 ar
    36     9    49 1
    37     3    32 1
    38     5    33 1
    39     8    34 1
    40    15    35 1
    41    15    36 1
    42    17    37 1
    43    18    38 1
    44    19    39 1
    45    20    40 1
    46    21    41 1
    47    25    42 1
    48    27    43 1
    49    28    44 1
    50    49    45 1
    51    49    46 1
    52    49    47 1
    53     6    48 1
@<TRIPOS>SUBSTRUCTURE
     1 2F3         1 TEMP              0 ****  ****    0 ROOT
