@<TRIPOS>MOLECULE
2F3
   49    53     1     0     0
SMALL
bcc


@<TRIPOS>ATOM
      1 C1           0.0000     0.0000     0.0000 ca         1 2F3       0.376600
      2 C2           1.4170     0.0000     0.0000 ca         1 2F3      -0.157300
      3 C3           2.1110     0.0000     1.2200 ca         1 2F3      -0.056000
      4 C7           1.3600    -0.0010    -2.3790 ca         1 2F3      -0.214600
      5 C8           2.1000    -0.0000    -1.2320 ca         1 2F3      -0.012000
      6 C9          -0.0330    -0.0010    -2.3100 ca         1 2F3       0.427300
      7 C10          5.2950    -3.8450    -4.0240 cc         1 2F3      -0.035200
      8 C11          2.2920    -4.6970    -5.1450 ca         1 2F3      -0.025000
      9 C12          0.9930    -4.8070    -5.5500 ca         1 2F3      -0.172300
     10 C13          2.7590    -3.4860    -4.6280 ca         1 2F3      -0.092800
     11 C14          1.8910    -2.3830    -4.5260 ca         1 2F3      -0.209200
     12 C15          3.9040    -1.7150    -3.7410 cd         1 2F3      -0.221300
     13 C16          4.0610    -3.0420    -4.1170 cc         1 2F3      -0.083200
     14 C19          4.9480    -0.8620    -3.1780 c          1 2F3       1.000800
     15 C20          2.0480    -0.0010    -3.7210 c3         1 2F3      -0.046400
     16 C21          6.2170    -3.8770    -5.1010 c          1 2F3       0.585700
     17 C22          7.6100    -5.3250    -3.8760 cc         1 2F3      -0.185400
     18 C24          5.5780    -4.5780    -2.8770 cd         1 2F3      -0.041000
     19 C4           1.4150     0.0000     2.3900 ca         1 2F3      -0.125000
     20 C5           0.0220     0.0000     2.3930 ca         1 2F3      -0.101000
     21 C6          -0.6830    -0.0050     1.2280 ca         1 2F3      -0.153300
     22 N1          -0.6660    -0.0010    -1.1600 nb         1 2F3      -0.581000
     23 N2           2.5970    -1.3340    -3.9870 na         1 2F3       0.454600
     24 C17          0.1310    -3.7200    -5.4580 ca         1 2F3       0.090900
     25 C18          0.5690    -2.5170    -4.9450 ca         1 2F3      -0.157000
     26 O1           4.7050     0.4480    -2.9640 o          1 2F3      -0.872300
     27 N3           7.3410    -4.6120    -4.9980 ns         1 2F3       0.081900
     28 C23          6.7550    -5.3270    -2.8240 cd         1 2F3      -0.187000
     29 O2           5.9920    -3.2430    -6.1180 o          1 2F3      -0.701500
     30 O3           6.0360    -1.3310    -2.9040 o          1 2F3      -0.872300
     31 F1          -1.1520    -3.8460    -5.8640 f          1 2F3      -0.146900
     32 H1           3.1940    -0.0000     1.2300 ha         1 2F3       0.118000
     33 H2           3.1820     0.0010    -1.2680 ha         1 2F3       0.181000
     34 H4           2.9580    -5.5480    -5.2190 ha         1 2F3       0.099000
     35 H5           2.8510     0.7260    -3.7160 h1         1 2F3       0.080200
     36 H6           1.3330     0.2560    -4.4930 h1         1 2F3       0.080200
     37 H7           8.5210    -5.9080    -3.8220 h4         1 2F3       0.106000
     38 H8           4.8900    -4.5750    -2.0390 ha         1 2F3       0.109000
     39 H9           1.9520     0.0040     3.3310 ha         1 2F3       0.097000
     40 H10         -0.5090     0.0000     3.3370 ha         1 2F3       0.092000
     41 H11         -1.7660    -0.0050     1.2480 ha         1 2F3       0.110000
     42 H12         -0.1100    -1.6760    -4.8770 ha         1 2F3       0.127000
     43 H14          7.9900    -4.6300    -5.7600 hn         1 2F3       0.152500
     44 H15          6.9890    -5.9030    -1.9380 ha         1 2F3       0.104000
     45 H16         -0.3310    -6.4740    -5.4940 hc         1 2F3      -0.001300
     46 H17          0.1470    -5.9700    -7.1210 hc         1 2F3      -0.001300
     47 H18          1.2920    -6.8440    -6.0930 hc         1 2F3      -0.001300
     48 Cl1         -0.9540    -0.0030    -3.7810 cl         1 2F3      -0.099000
     49 C25          0.4900    -6.1160    -6.1040 c3         1 2F3       0.080200
@<TRIPOS>BOND
     1     1     2 ar  
     2     1    21 ar  
     3     1    22 ar  
     4     2     3 ar  
     5     2     5 ar  
     6     3    19 ar  
     7     3    32 1   
     8     4     5 ar  
     9     4     6 ar  
    10     4    15 1   
    11     5    33 1   
    12     6    22 ar  
    13     6    48 1   
    14     7    13 1   
    15     7    16 1   
    16     7    18 2   
    17     8     9 ar  
    18     8    10 ar  
    19     8    34 1   
    20     9    24 ar  
    21     9    49 1   
    22    10    11 ar  
    23    10    13 1   
    24    11    23 1   
    25    11    25 ar  
    26    12    13 2   
    27    12    14 1   
    28    12    23 1   
    29    14    26 1   
    30    14    30 1   
    31    15    23 1   
    32    15    35 1   
    33    15    36 1   
    34    16    27 1   
    35    16    29 2   
    36    17    27 1   
    37    17    28 2   
    38    17    37 1   
    39    18    28 1   
    40    18    38 1   
    41    19    20 ar  
    42    19    39 1   
    43    20    21 ar  
    44    20    40 1   
    45    21    41 1   
    46    24    25 ar  
    47    24    31 1   
    48    25    42 1   
    49    27    43 1   
    50    28    44 1   
    51    45    49 1   
    52    46    49 1   
    53    47    49 1   
@<TRIPOS>SUBSTRUCTURE
     1 2F3         1 TEMP              0 ****  ****    0 ROOT
