@<TRIPOS>MOLECULE
2F4
   51    55     1     0     0
SMALL
bcc


@<TRIPOS>ATOM
      1 C01          0.0000     0.0000     0.0000 c3         1 2F4       0.200100
      2 N02          1.4640     0.0000     0.0000 nu         1 2F4      -0.519900
      3 C03          2.1600     0.0000     1.2040 ca         1 2F4       0.522200
      4 C04          1.4590     0.0010     2.4030 ca         1 2F4      -0.304300
      5 C05          2.1710     0.0000     3.6020 cp         1 2F4       0.059000
      6 C06          3.5700     0.0000     3.5420 ca         1 2F4      -0.273300
      7 C07          4.1900     0.0000     2.3130 ca         1 2F4       0.455200
      8 N08          3.4850    -0.0050     1.1960 nb         1 2F4      -0.655000
      9 C09          1.4650     0.0020     4.9060 cp         1 2F4      -0.182300
     10 C10          0.4450     0.9190     5.1600 ca         1 2F4      -0.024000
     11 C11         -0.1850     0.8800     6.3940 ca         1 2F4      -0.267300
     12 C12          0.2120    -0.0580     7.3280 ca         1 2F4       0.446200
     13 N13          1.1800    -0.9150     7.0650 nb         1 2F4      -0.649000
     14 C14          1.8070    -0.9210     5.9020 ca         1 2F4       0.629600
     15 O15          2.7930    -1.8240     5.6730 os         1 2F4      -0.331400
     16 C16          3.1640    -2.6360     6.6980 ca         1 2F4       0.094100
     17 C17          2.3640    -3.7120     7.0550 ca         1 2F4      -0.083000
     18 C18          2.7410    -4.5370     8.0970 ca         1 2F4      -0.116500
     19 C19          3.9210    -4.2920     8.7850 ca         1 2F4      -0.004400
     20 N20          4.3040    -5.1280     9.8400 nu         1 2F4      -0.250600
     21 C21          3.9480    -6.4620     9.8270 cc         1 2F4       0.324700
     22 N22          3.2170    -7.0360     8.9050 nd         1 2F4      -0.586100
     23 C23          3.0590    -8.3540     9.2030 ca         1 2F4       0.112400
     24 C24          2.3880    -9.4050     8.5740 ca         1 2F4      -0.042000
     25 C25          2.4090   -10.6640     9.1320 ca         1 2F4      -0.119000
     26 C26          3.0930   -10.8970    10.3170 ca         1 2F4       0.074900
     27 F27          3.1060   -12.1380    10.8530 f          1 2F4      -0.118900
     28 C28          3.7630    -9.8660    10.9530 ca         1 2F4       0.094900
     29 F29          4.4280   -10.0990    12.1050 f          1 2F4      -0.121900
     30 C30          3.7500    -8.5930    10.4010 ca         1 2F4      -0.288200
     31 N31          4.3090    -7.3790    10.7730 na         1 2F4       0.235700
     32 C32          4.7220    -3.2140     8.4260 ca         1 2F4      -0.116500
     33 C33          4.3470    -2.3940     7.3820 ca         1 2F4      -0.083000
     34 H1          -0.3610     0.9110     0.4620 h1         1 2F4       0.004033
     35 H2          -0.3610    -0.8550     0.5580 h1         1 2F4       0.004033
     36 H3          -0.3610    -0.0560    -1.0200 h1         1 2F4       0.004033
     37 H4           1.9650     0.0000    -0.8670 hn         1 2F4       0.297800
     38 H5           0.3750     0.0010     2.4060 ha         1 2F4       0.126000
     39 H6           4.1570     0.0020     4.4530 ha         1 2F4       0.122000
     40 H7           5.2720    -0.0020     2.2610 h4         1 2F4      -0.024900
     41 H8           0.1520     1.6450     4.4100 ha         1 2F4       0.115000
     42 H9          -0.9810     1.5780     6.6230 ha         1 2F4       0.117000
     43 H10         -0.2790    -0.0880     8.2940 h4         1 2F4      -0.020900
     44 H11          1.4430    -3.9040     6.5190 ha         1 2F4       0.113000
     45 H12          2.1160    -5.3770     8.3760 ha         1 2F4       0.129500
     46 H13          4.8070    -4.7520    10.6190 hn         1 2F4       0.279800
     47 H15          1.8520    -9.2310     7.6490 ha         1 2F4       0.118000
     48 H16          1.8870   -11.4780     8.6430 ha         1 2F4       0.124000
     49 H17          4.9780    -7.2390    11.5030 hn         1 2F4       0.134700
     50 H18          5.6440    -3.0230     8.9610 ha         1 2F4       0.129500
     51 H19          4.9710    -1.5540     7.1020 ha         1 2F4       0.113000
@<TRIPOS>BOND
     1     1     2 1   
     2     1    34 1   
     3     1    35 1   
     4     1    36 1   
     5     2     3 1   
     6     2    37 1   
     7     3     4 ar  
     8     3     8 ar  
     9     4     5 ar  
    10     4    38 1   
    11     5     6 ar  
    12     5     9 1   
    13     6     7 ar  
    14     6    39 1   
    15     7     8 ar  
    16     7    40 1   
    17     9    10 ar  
    18     9    14 ar  
    19    10    11 ar  
    20    10    41 1   
    21    11    12 ar  
    22    11    42 1   
    23    12    13 ar  
    24    12    43 1   
    25    13    14 ar  
    26    14    15 1   
    27    15    16 1   
    28    16    17 ar  
    29    16    33 ar  
    30    17    18 ar  
    31    17    44 1   
    32    18    19 ar  
    33    18    45 1   
    34    19    20 1   
    35    19    32 ar  
    36    20    21 1   
    37    20    46 1   
    38    21    22 2   
    39    21    31 1   
    40    22    23 1   
    41    23    24 ar  
    42    23    30 ar  
    43    24    25 ar  
    44    24    47 1   
    45    25    26 ar  
    46    25    48 1   
    47    26    27 1   
    48    26    28 ar  
    49    28    29 1   
    50    28    30 ar  
    51    30    31 1   
    52    31    49 1   
    53    32    33 ar  
    54    32    50 1   
    55    33    51 1   
@<TRIPOS>SUBSTRUCTURE
     1 2F4         1 TEMP              0 ****  ****    0 ROOT
