@<TRIPOS>MOLECULE
molecule
   49    53     1     0     0
SMALL
bcc


@<TRIPOS>ATOM
      1 O01          0.0000     0.0000     0.0000 o          1 2F5      -0.530100
      2 C02          1.2160     0.0000     0.0000 c          1 2F5       0.544400
      3 C03          1.9550     0.0000     1.2810 cc         1 2F5       0.354800
      4 N04          1.3830     0.0980     2.5220 na         1 2F5      -0.225300
      5 C05          2.4040     0.0600     3.4420 ca         1 2F5      -0.084200
      6 C06          2.4570     0.1170     4.8300 ca         1 2F5      -0.129000
      7 C07          3.6760     0.0520     5.4700 ca         1 2F5      -0.103000
      8 C08          4.8520    -0.0700     4.7400 ca         1 2F5      -0.145000
      9 C09          4.8230    -0.1260     3.3760 ca         1 2F5      -0.065000
     10 C10          3.5970    -0.0620     2.7000 ca         1 2F5       0.081400
     11 N11          3.2560    -0.0990     1.4000 nd         1 2F5      -0.581100
     12 C12          1.9540    -0.0070    -1.2760 ca         1 2F5      -0.177600
     13 C13          1.2620     0.1140    -2.4870 ca         1 2F5      -0.064500
     14 C14          1.9550     0.1070    -3.6760 ca         1 2F5      -0.149000
     15 C15          3.3390    -0.0190    -3.6760 ca         1 2F5       0.138100
     16 O16          4.0180    -0.0250    -4.8500 os         1 2F5      -0.354400
     17 C17          4.4900    -1.2130    -5.3070 ca         1 2F5       0.520300
     18 N18          4.3660    -2.3040    -4.5710 nb         1 2F5      -0.700000
     19 C19          4.8220    -3.4620    -5.0220 ca         1 2F5       0.303900
     20 C20          5.4290    -3.5370    -6.2590 ca         1 2F5       0.285900
     21 N21          5.5580    -2.4510    -7.0040 nb         1 2F5      -0.678000
     22 C22          5.1060    -1.2880    -6.5630 ca         1 2F5       0.494900
     23 N23          5.2350    -0.1450    -7.3470 nh         1 2F5      -0.683300
     24 C24          5.9520     0.9130    -6.6210 c3         1 2F5       0.127300
     25 C25          6.0200     2.1680    -7.4950 c3         1 2F5       0.136400
     26 O26          6.6480     1.8440    -8.7380 os         1 2F5      -0.425600
     27 C27          5.9750     0.8170    -9.4720 c3         1 2F5       0.136400
     28 C28          5.9070    -0.4510    -8.6190 c3         1 2F5       0.127300
     29 C29          4.0310    -0.1400    -2.4750 ca         1 2F5      -0.149000
     30 C30          3.3480    -0.1290    -1.2810 ca         1 2F5      -0.064500
     31 H1           0.4270     0.3280     2.7130 hn         1 2F5       0.319700
     32 H2           1.5450     0.2120     5.4060 ha         1 2F5       0.132000
     33 H3           3.7170     0.0950     6.5510 ha         1 2F5       0.136000
     34 H4           5.8010    -0.1200     5.2580 ha         1 2F5       0.136000
     35 H5           5.7460    -0.2210     2.8180 ha         1 2F5       0.143000
     36 H7           0.1840     0.2120    -2.4880 ha         1 2F5       0.175500
     37 H8           1.4200     0.2010    -4.6130 ha         1 2F5       0.146500
     38 H9           4.7190    -4.3550    -4.4170 h4         1 2F5       0.035100
     39 H10          5.8000    -4.4880    -6.6220 h4         1 2F5       0.034100
     40 H11          6.9560     0.5770    -6.3930 h1         1 2F5       0.062200
     41 H12          5.4240     1.1410    -5.7030 h1         1 2F5       0.062200
     42 H13          5.0180     2.5330    -7.6810 h1         1 2F5       0.056700
     43 H14          6.6000     2.9300    -6.9860 h1         1 2F5       0.056700
     44 H15          6.5210     0.6090   -10.3840 h1         1 2F5       0.056700
     45 H16          4.9710     1.1450    -9.7120 h1         1 2F5       0.056700
     46 H17          6.9110    -0.8060    -8.4200 h1         1 2F5       0.062200
     47 H18          5.3470    -1.2120    -9.1480 h1         1 2F5       0.062200
     48 H19          5.1100    -0.2360    -2.4800 ha         1 2F5       0.146500
     49 H20          3.8870    -0.2230    -0.3460 ha         1 2F5       0.175500
@<TRIPOS>BOND
     1    19    20 ar
     2    19    18 ar
     3    20    21 ar
     4     1     2 2
     5    18    17 ar
     6    21    22 ar
     7     2     3 1
     8     2    12 1
     9     3    11 2
    10     3     4 1
    11    30    12 ar
    12    30    29 ar
    13    11    10 1
    14     4     5 1
    15    12    13 ar
    16    10     5 ar
    17    10     9 ar
    18     5     6 ar
    19    29    15 ar
    20    17    22 ar
    21    17    16 1
    22     9     8 ar
    23     6     7 ar
    24    22    23 1
    25     8     7 ar
    26    13    14 ar
    27    15    14 ar
    28    15    16 1
    29    23    28 1
    30    23    24 1
    31    28    27 1
    32    24    25 1
    33    27    26 1
    34    25    26 1
    35     4    31 1
    36     6    32 1
    37     7    33 1
    38     8    34 1
    39     9    35 1
    40    13    36 1
    41    14    37 1
    42    19    38 1
    43    20    39 1
    44    24    40 1
    45    24    41 1
    46    25    42 1
    47    25    43 1
    48    27    44 1
    49    27    45 1
    50    28    46 1
    51    28    47 1
    52    29    48 1
    53    30    49 1
@<TRIPOS>SUBSTRUCTURE
     1 2F5         1 TEMP              0 ****  ****    0 ROOT
