@<TRIPOS>MOLECULE
2F5
   49    53     1     0     0
SMALL
bcc


@<TRIPOS>ATOM
      1 O01          0.0000     0.0000     0.0000 o          1 2F5      -0.579100
      2 C02          1.2160     0.0000     0.0000 c          1 2F5       0.606400
      3 C03          1.9550     0.0000     1.2810 cc         1 2F5       0.122800
      4 N04          1.3830     0.0980     2.5220 na         1 2F5       0.328700
      5 C05          2.4040     0.0600     3.4420 ca         1 2F5      -0.275200
      6 C06          2.4570     0.1170     4.8300 ca         1 2F5      -0.087000
      7 C07          3.6760     0.0520     5.4700 ca         1 2F5      -0.078000
      8 C08          4.8520    -0.0700     4.7400 ca         1 2F5      -0.116000
      9 C09          4.8230    -0.1260     3.3760 ca         1 2F5      -0.034000
     10 C10          3.5970    -0.0620     2.7000 ca         1 2F5       0.048400
     11 N11          3.2560    -0.0990     1.4000 nd         1 2F5      -0.475100
     12 C12          1.9540    -0.0070    -1.2760 ca         1 2F5      -0.190600
     13 C13          1.2620     0.1140    -2.4870 ca         1 2F5      -0.044500
     14 C14          1.9550     0.1070    -3.6760 ca         1 2F5      -0.130500
     15 C15          3.3390    -0.0190    -3.6760 ca         1 2F5       0.138100
     16 O16          4.0180    -0.0250    -4.8500 os         1 2F5      -0.333400
     17 C17          4.4900    -1.2130    -5.3070 ca         1 2F5       0.485300
     18 N18          4.3660    -2.3040    -4.5710 nb         1 2F5      -0.595000
     19 C19          4.8220    -3.4620    -5.0220 ca         1 2F5       0.292900
     20 C20          5.4290    -3.5370    -6.2590 ca         1 2F5       0.273900
     21 N21          5.5580    -2.4510    -7.0040 nb         1 2F5      -0.568000
     22 C22          5.1060    -1.2880    -6.5630 ca         1 2F5       0.360900
     23 N23          5.2350    -0.1450    -7.3470 nh         1 2F5      -0.447300
     24 C24          5.9520     0.9130    -6.6210 c3         1 2F5       0.091800
     25 C25          6.0200     2.1680    -7.4950 c3         1 2F5       0.213900
     26 O26          6.6480     1.8440    -8.7380 os         1 2F5      -0.411600
     27 C27          5.9750     0.8170    -9.4720 c3         1 2F5       0.213900
     28 C28          5.9070    -0.4510    -8.6190 c3         1 2F5       0.091800
     29 C29          4.0310    -0.1400    -2.4750 ca         1 2F5      -0.130500
     30 C30          3.3480    -0.1290    -1.2810 ca         1 2F5      -0.044500
     31 H1           0.4270     0.3280     2.7130 hn         1 2F5       0.138700
     32 H2           1.5450     0.2120     5.4060 ha         1 2F5       0.104000
     33 H3           3.7170     0.0950     6.5510 ha         1 2F5       0.105000
     34 H4           5.8010    -0.1200     5.2580 ha         1 2F5       0.107000
     35 H5           5.7460    -0.2210     2.8180 ha         1 2F5       0.110000
     36 H7           0.1840     0.2120    -2.4880 ha         1 2F5       0.146500
     37 H8           1.4200     0.2010    -4.6130 ha         1 2F5       0.116500
     38 H9           4.7190    -4.3550    -4.4170 h4         1 2F5      -0.008900
     39 H10          5.8000    -4.4880    -6.6220 h4         1 2F5      -0.007900
     40 H11          6.9560     0.5770    -6.3930 h1         1 2F5       0.035450
     41 H12          5.4240     1.1410    -5.7030 h1         1 2F5       0.035450
     42 H13          5.0180     2.5330    -7.6810 h1         1 2F5       0.014450
     43 H14          6.6000     2.9300    -6.9860 h1         1 2F5       0.014450
     44 H15          6.5210     0.6090   -10.3840 h1         1 2F5       0.014450
     45 H16          4.9710     1.1450    -9.7120 h1         1 2F5       0.014450
     46 H17          6.9110    -0.8060    -8.4200 h1         1 2F5       0.035450
     47 H18          5.3470    -1.2120    -9.1480 h1         1 2F5       0.035450
     48 H19          5.1100    -0.2360    -2.4800 ha         1 2F5       0.116500
     49 H20          3.8870    -0.2230    -0.3460 ha         1 2F5       0.146500
@<TRIPOS>BOND
     1     1     2 2   
     2     2     3 1   
     3     2    12 1   
     4     3     4 1   
     5     3    11 2   
     6     4     5 1   
     7     4    31 1   
     8     5     6 ar  
     9     5    10 ar  
    10     6     7 ar  
    11     6    32 1   
    12     7     8 ar  
    13     7    33 1   
    14     8     9 ar  
    15     8    34 1   
    16     9    10 ar  
    17     9    35 1   
    18    10    11 1   
    19    12    13 ar  
    20    12    30 ar  
    21    13    14 ar  
    22    13    36 1   
    23    14    15 ar  
    24    14    37 1   
    25    15    16 1   
    26    15    29 ar  
    27    16    17 1   
    28    17    18 ar  
    29    17    22 ar  
    30    18    19 ar  
    31    19    20 ar  
    32    19    38 1   
    33    20    21 ar  
    34    20    39 1   
    35    21    22 ar  
    36    22    23 1   
    37    23    24 1   
    38    23    28 1   
    39    24    25 1   
    40    24    40 1   
    41    24    41 1   
    42    25    26 1   
    43    25    42 1   
    44    25    43 1   
    45    26    27 1   
    46    27    28 1   
    47    27    44 1   
    48    27    45 1   
    49    28    46 1   
    50    28    47 1   
    51    29    30 ar  
    52    29    48 1   
    53    30    49 1   
@<TRIPOS>SUBSTRUCTURE
     1 2F5         1 TEMP              0 ****  ****    0 ROOT
