@<TRIPOS>MOLECULE
2F6
   22    23     1     0     0
SMALL
bcc


@<TRIPOS>ATOM
      1 N3         -0.0480    0.0010    0.0030 nc        1 2F6     -0.518800
      2 C5         -1.8090    0.0020    1.7250 c3        1 2F6      0.039600
      3 C6          0.6550   -0.0010    2.1640 cc        1 2F6     -0.131300
      4 C7          1.8120   -0.0010    1.3640 cd        1 2F6     -0.289800
      5 C8          3.1630   -0.0030    1.8290 cd        1 2F6      0.403800
      6 C10         4.9670   -0.0060    3.1970 cc        1 2F6     -0.148300
      7 C1          2.1470   -0.0010   -1.2240 c3        1 2F6     -0.121400
      8 C2          1.3160   -0.0000   -0.0060 cd        1 2F6      0.345600
      9 N4         -0.4350    0.0010    1.2910 na        1 2F6      0.088400
     10 C9          3.5680   -0.0050    3.2270 cd        1 2F6     -0.295300
     11 N11         5.3300   -0.0040    1.8490 na        1 2F6     -0.021600
     12 N13         4.2790   -0.0020    1.0310 nc        1 2F6     -0.516800
     13 H1         -1.9990    0.9180    2.3460 h1        1 2F6      0.057367
     14 H2         -2.0010   -0.9130    2.3460 h1        1 2F6      0.057367
     15 H3         -2.5040    0.0020    0.8440 h1        1 2F6      0.057367
     16 H4          0.5380   -0.0010    3.2460 h4        1 2F6      0.174000
     17 H5          5.7040   -0.0070    3.9980 h4        1 2F6      0.174000
     18 H6          1.5270   -0.0000   -2.1540 hc        1 2F6      0.054700
     19 H7          2.8010   -0.9080   -1.2290 hc        1 2F6      0.054700
     20 H8          2.8020    0.9070   -1.2280 hc        1 2F6      0.054700
     21 H9          2.9130   -0.0060    4.0880 ha        1 2F6      0.161000
     22 H10         6.2490   -0.0040    1.4760 hn        1 2F6      0.319700
@<TRIPOS>BOND
     1    1    8 2   
     2    1    9 1   
     3    2    9 1   
     4    2   13 1   
     5    2   14 1   
     6    2   15 1   
     7    3    4 2   
     8    3    9 1   
     9    3   16 1   
    10    4    5 1   
    11    4    8 1   
    12    5   10 1   
    13    5   12 2   
    14    6   10 2   
    15    6   11 1   
    16    6   17 1   
    17    7    8 1   
    18    7   18 1   
    19    7   19 1   
    20    7   20 1   
    21   10   21 1   
    22   11   12 1   
    23   11   22 1   
@<TRIPOS>SUBSTRUCTURE
     1 2F6         1 TEMP              0 ****  ****    0 ROOT
