@<TRIPOS>MOLECULE
molecule
   22    23     1     0     0
SMALL
bcc


@<TRIPOS>ATOM
      1 N3           0.0000     0.0000     0.0000 nc         1 2F6      -0.519800
      2 C5          -1.8420     0.0020     1.7660 c3         1 2F6       0.065600
      3 C6           0.6370     0.0000     2.1340 cc         1 2F6      -0.090300
      4 C7           1.7440     0.0000     1.3390 cd         1 2F6      -0.337800
      5 C8           3.1570    -0.0000     1.8000 cd         1 2F6       0.443800
      6 C10          4.9410    -0.0050     3.1380 cd         1 2F6      -0.113300
      7 C1           2.1910    -0.0010    -1.2200 c3         1 2F6      -0.107400
      8 C2           1.3060     0.0000     0.0000 cd         1 2F6       0.369600
      9 N4          -0.4450     0.0010     1.3280 na         1 2F6       0.065400
     10 C9           3.5900    -0.0060     3.1400 cc         1 2F6      -0.348300
     11 N11          5.3560    -0.0030     1.8530 na         1 2F6      -0.048600
     12 N13          4.2230    -0.0030     1.0290 nc         1 2F6      -0.518800
     13 H1          -2.4930     0.0010     0.9000 h1         1 2F6       0.054033
     14 H2          -2.0340    -0.8820     2.3630 h1         1 2F6       0.054033
     15 H3          -2.0340     0.8870     2.3600 h1         1 2F6       0.054033
     16 H4           0.6270     0.0010     3.2170 h4         1 2F6       0.171000
     17 H5           5.5800    -0.0080     4.0130 h4         1 2F6       0.166000
     18 H6           2.8170     0.8830    -1.2120 hc         1 2F6       0.054700
     19 H7           2.8160    -0.8860    -1.2120 hc         1 2F6       0.054700
     20 H8           1.5760    -0.0010    -2.1120 hc         1 2F6       0.054700
     21 H9           2.9540    -0.0080     4.0170 ha         1 2F6       0.150000
     22 H10          6.3070    -0.0030     1.5430 hn         1 2F6       0.326700
@<TRIPOS>BOND
     1     2     9 1   
     2     3     9 1   
     3     3     4 2   
     4     9     1 1   
     5    10     6 2   
     6    10     5 1   
     7     4     5 1   
     8     4     8 1   
     9     1     8 2   
    10     6    11 1   
    11     5    12 2   
    12     8     7 1   
    13    11    12 1   
    14     2    13 1   
    15     2    14 1   
    16     2    15 1   
    17     3    16 1   
    18     6    17 1   
    19     7    18 1   
    20     7    19 1   
    21     7    20 1   
    22    10    21 1   
    23    11    22 1   
@<TRIPOS>SUBSTRUCTURE
     1 2F6         1 TEMP              0 ****  ****    0 ROOT
