@<TRIPOS>MOLECULE
molecule
   62    62     1     0     0
SMALL
bcc


@<TRIPOS>ATOM
      1 OE1          0.0000     0.0000     0.0000 o          1 2F7      -0.911800
      2 CD           1.2090     0.0000     0.0000 c          1 2F7       0.902600
      3 OE2          1.8790     0.0000     1.1630 o          1 2F7      -0.911800
      4 CG           1.9620    -0.0070    -1.3050 c3         1 2F7      -0.185400
      5 CB           0.9680    -0.0120    -2.4670 c3         1 2F7      -0.040400
      6 CA           1.7330    -0.0190    -3.7930 c3         1 2F7       0.110500
      7 C            0.7590    -0.1470    -4.9350 c          1 2F7       0.897600
      8 O            0.6980     0.7170    -5.7770 o          1 2F7      -0.884800
      9 OXT         -0.0410    -1.2220    -5.0170 o          1 2F7      -0.884800
     10 N            2.4860     1.2350    -3.9300 n7         1 2F7      -0.927300
     11 PBK          3.9510     0.9760    -4.7150 p5         1 2F7       1.327700
     12 OAL          4.6800     2.2590    -4.8350 o          1 2F7      -0.860500
     13 OAH          3.6750     0.3770    -6.1840 o          1 2F7      -0.860500
     14 OAY          4.8370    -0.0670    -3.8680 os         1 2F7      -0.565200
     15 CAU          5.4250     0.2560    -2.6060 c3         1 2F7       0.207400
     16 CBI          6.1960    -0.9550    -2.0780 c3         1 2F7      -0.008300
     17 CBB          5.2800    -2.1500    -2.0260 c          1 2F7       0.902600
     18 OAK          4.5180    -2.3650    -0.9420 o          1 2F7      -0.832800
     19 OAE          5.2310    -2.9160    -2.9600 o          1 2F7      -0.832800
     20 NAW          7.3240    -1.2420    -2.9680 ns         1 2F7      -0.478900
     21 CBD          8.4170    -1.8700    -2.4900 c          1 2F7       0.622100
     22 OAG          8.4310    -2.2790    -1.3480 o          1 2F7      -0.671100
     23 CBJ          9.6210    -2.0620    -3.3750 c3         1 2F7       0.027700
     24 CBG          9.3710    -3.2320    -4.3300 c3         1 2F7      -0.075700
     25 CAB          9.2520    -4.5290    -3.5270 c3         1 2F7      -0.089100
     26 CAR         10.5380    -3.3460    -5.3120 c3         1 2F7      -0.079400
     27 CAA         10.5650    -2.1130    -6.2180 c3         1 2F7      -0.082100
     28 NAV         10.7940    -2.3520    -2.5460 ns         1 2F7      -0.529900
     29 CBC         12.0300    -2.0730    -3.0040 c          1 2F7       0.653700
     30 OAF         12.1720    -1.5800    -4.1070 o          1 2F7      -0.636100
     31 CBF         13.2130    -2.3640    -2.1690 ca         1 2F7      -0.140600
     32 CAP         14.4950    -2.0750    -2.6420 ca         1 2F7      -0.067500
     33 CAN         15.5940    -2.3500    -1.8590 ca         1 2F7      -0.186000
     34 CBE         15.4290    -2.9120    -0.6010 ca         1 2F7       0.104900
     35 FAM         16.5110    -3.1780     0.1630 f          1 2F7      -0.166900
     36 CAO         14.1600    -3.1990    -0.1270 ca         1 2F7      -0.186000
     37 CAQ         13.0520    -2.9240    -0.9000 ca         1 2F7      -0.067500
     38 H2           2.5840    -0.8920    -1.3580 hc         1 2F7       0.056200
     39 H3           2.5850     0.8770    -1.3660 hc         1 2F7       0.056200
     40 H4           0.3440    -0.8960    -2.4060 hc         1 2F7       0.026200
     41 H5           0.3450     0.8730    -2.4140 hc         1 2F7       0.026200
     42 H6           2.4200    -0.8560    -3.8080 h1         1 2F7       0.078700
     43 H8           1.9980     2.1010    -4.0530 hn         1 2F7       0.391800
     44 H10          4.6460     0.5230    -1.9030 h1         1 2F7       0.024700
     45 H11          6.1040     1.0920    -2.7270 h1         1 2F7       0.024700
     46 H12          6.5670    -0.7410    -1.0830 h1         1 2F7       0.055700
     47 H14          7.2930    -0.9510    -3.9250 hn         1 2F7       0.326500
     48 H15          9.7980    -1.1590    -3.9470 h1         1 2F7       0.082700
     49 H16          8.4530    -3.0600    -4.8780 hc         1 2F7       0.101700
     50 H17         10.2300    -4.8200    -3.1640 hc         1 2F7       0.036033
     51 H18          8.5860    -4.3730    -2.6860 hc         1 2F7       0.036033
     52 H19          8.8540    -5.3110    -4.1620 hc         1 2F7       0.036033
     53 H20         10.4150    -4.2360    -5.9180 hc         1 2F7       0.023700
     54 H21         11.4690    -3.4100    -4.7620 hc         1 2F7       0.023700
     55 H22          9.7380    -2.1590    -6.9160 hc         1 2F7       0.030700
     56 H23         11.4990    -2.0870    -6.7670 hc         1 2F7       0.030700
     57 H24         10.4770    -1.2180    -5.6130 hc         1 2F7       0.030700
     58 H25         10.6750    -2.7170    -1.6210 hn         1 2F7       0.333500
     59 H26         14.6240    -1.6360    -3.6240 ha         1 2F7       0.158500
     60 H27         16.5890    -2.1260    -2.2250 ha         1 2F7       0.130500
     61 H28         14.0370    -3.6360     0.8570 ha         1 2F7       0.130500
     62 H29         12.0600    -3.1500    -0.5280 ha         1 2F7       0.158500
@<TRIPOS>BOND
     1    35    34 1   
     2    34    33 ar  
     3    34    36 ar  
     4    33    32 ar  
     5     8     7 1   
     6     1     2 1   
     7    36    37 ar  
     8     2     3 1   
     9     2     4 1   
    10     7     9 1   
    11     7     6 1   
    12    32    31 ar  
    13     4     5 1   
    14    37    31 ar  
    15     5     6 1   
    16    31    29 1   
    17     6    10 1   
    18    27    26 1   
    19    12    11 1   
    20    29    28 1   
    21    29    30 2   
    22    28    23 1   
    23    10    11 1   
    24    15    16 1   
    25    15    14 1   
    26    11    14 1   
    27    11    13 1   
    28    26    24 1   
    29    20    16 1   
    30    20    21 1   
    31    23    24 1   
    32    23    21 1   
    33    16    17 1   
    34    24    25 1   
    35    21    22 2   
    36    17    19 1   
    37    17    18 1   
    38     4    38 1   
    39     4    39 1   
    40     5    40 1   
    41     5    41 1   
    42     6    42 1   
    43    10    43 1   
    44    15    44 1   
    45    15    45 1   
    46    16    46 1   
    47    20    47 1   
    48    23    48 1   
    49    24    49 1   
    50    25    50 1   
    51    25    51 1   
    52    25    52 1   
    53    26    53 1   
    54    26    54 1   
    55    27    55 1   
    56    27    56 1   
    57    27    57 1   
    58    28    58 1   
    59    32    59 1   
    60    33    60 1   
    61    36    61 1   
    62    37    62 1   
@<TRIPOS>SUBSTRUCTURE
     1 2F7         1 TEMP              0 ****  ****    0 ROOT
