@<TRIPOS>MOLECULE
2F9
   59    59     1     0     0
SMALL
bcc


@<TRIPOS>ATOM
      1 OE1          0.0000     0.0000     0.0000 o          1 2F9      -0.965300
      2 CD           1.3420     0.0000     0.0000 c          1 2F9       1.006600
      3 OE2          1.9470     0.0000     1.0460 o          1 2F9      -0.965300
      4 CG           2.0950    -0.0000    -1.3050 c3         1 2F9      -0.185400
      5 CB           3.6000     0.0000    -1.0260 c3         1 2F9       0.003600
      6 CA           4.3650    -0.0000    -2.3500 c3         1 2F9       0.063500
      7 C            5.8420     0.1240    -2.0780 c          1 2F9       0.994600
      8 OXT          6.3170     1.1990    -1.4290 o          1 2F9      -0.928300
      9 O            6.5980    -0.7440    -2.4430 o          1 2F9      -0.928300
     10 N            4.1030    -1.2550    -3.0670 n7         1 2F9      -0.532300
     11 PBJ          4.0520    -1.0000    -4.7310 p5         1 2F9       0.733700
     12 OAL          3.7870    -2.2840    -5.4180 o          1 2F9      -0.677000
     13 OAH          5.4650    -0.4080    -5.2260 o          1 2F9      -0.677000
     14 OAX          2.8790     0.0460    -5.0770 os         1 2F9      -0.446200
     15 CAT          1.4910    -0.2710    -4.9540 c3         1 2F9       0.274400
     16 CBH          0.6530     0.9420    -5.3620 c3         1 2F9      -0.140300
     17 CBA          1.0700     2.1390    -4.5450 c          1 2F9       1.003600
     18 OAK          1.4980     3.1260    -5.0950 o          1 2F9      -0.887300
     19 OAE          0.9670     2.1070    -3.2080 o          1 2F9      -0.887300
     20 NAV          0.8610     1.2250    -6.7840 ns         1 2F9      -0.032900
     21 CBC         -0.0870     1.8750    -7.4880 c          1 2F9       0.523100
     22 OAG         -1.1480     2.1470    -6.9690 o          1 2F9      -0.731100
     23 CBI          0.1710     2.2620    -8.9210 c3         1 2F9      -0.070300
     24 CBF          0.8820     3.6160    -8.9630 c3         1 2F9      -0.044700
     25 CAB          2.2640     3.4870    -8.3180 c3         1 2F9      -0.035600
     26 CAA          1.0390     4.0640   -10.4170 c3         1 2F9      -0.035600
     27 NAU         -1.1010     2.3560    -9.6390 ns         1 2F9      -0.123900
     28 CBB         -1.1360     2.1870   -10.9750 c          1 2F9       0.567700
     29 OAF         -0.1100     1.9570   -11.5860 o          1 2F9      -0.693100
     30 CBE         -2.4200     2.2820   -11.7000 ca         1 2F9      -0.160600
     31 CAP         -2.4590     2.1080   -13.0850 ca         1 2F9      -0.046000
     32 CAN         -3.6590     2.1970   -13.7560 ca         1 2F9      -0.155500
     33 CBD         -4.8280     2.4600   -13.0570 ca         1 2F9       0.039900
     34 FAM         -6.0020     2.5470   -13.7190 f          1 2F9      -0.153900
     35 CAO         -4.7960     2.6340   -11.6820 ca         1 2F9      -0.155500
     36 CAQ         -3.6010     2.5410   -11.0010 ca         1 2F9      -0.046000
     37 H2           1.8330     0.8840    -1.8730 hc         1 2F9       0.055200
     38 H3           1.8330    -0.8850    -1.8730 hc         1 2F9       0.055200
     39 H4           3.8620     0.8850    -0.4580 hc         1 2F9       0.003200
     40 H5           3.8620    -0.8840    -0.4570 hc         1 2F9       0.003200
     41 H6           4.0390     0.8370    -2.9560 h1         1 2F9       0.065700
     42 H8           4.4500    -2.1210    -2.7040 hn         1 2F9       0.283800
     43 H10          1.2700    -0.5330    -3.9260 h1         1 2F9      -0.011800
     44 H11          1.2530    -1.1070    -5.5990 h1         1 2F9      -0.011800
     45 H12         -0.3950     0.7320    -5.1850 h1         1 2F9       0.037700
     46 H14          1.6850     0.8920    -7.2440 hn         1 2F9       0.176500
     47 H15          0.7960     1.5120    -9.3910 h1         1 2F9       0.057700
     48 H16          0.2970     4.3480    -8.4200 hc         1 2F9       0.035700
     49 H17          2.9040     4.2860    -8.6720 hc         1 2F9       0.016367
     50 H18          2.6990     2.5310    -8.5830 hc         1 2F9       0.016367
     51 H19          2.1670     3.5530    -7.2410 hc         1 2F9       0.016367
     52 H20          0.0670     4.3150   -10.8240 hc         1 2F9       0.016367
     53 H21          1.4770     3.2610   -10.9970 hc         1 2F9       0.016367
     54 H22          1.6840     4.9340   -10.4590 hc         1 2F9       0.016367
     55 H23         -1.9480     2.5350    -9.1360 hn         1 2F9       0.192500
     56 H24         -1.5470     1.9020   -13.6320 ha         1 2F9       0.125000
     57 H25         -3.6900     2.0620   -14.8300 ha         1 2F9       0.102000
     58 H26         -5.7120     2.8370   -11.1410 ha         1 2F9       0.102000
     59 H27         -3.5770     2.6770    -9.9270 ha         1 2F9       0.125000
@<TRIPOS>BOND
     1     1     2 1   
     2     2     3 1   
     3     2     4 1   
     4     4     5 1   
     5     4    37 1   
     6     4    38 1   
     7     5     6 1   
     8     5    39 1   
     9     5    40 1   
    10     6     7 1   
    11     6    10 1   
    12     6    41 1   
    13     7     8 1   
    14     7     9 1   
    15    10    11 1   
    16    10    42 1   
    17    11    12 1   
    18    11    13 1   
    19    11    14 1   
    20    14    15 1   
    21    15    16 1   
    22    15    43 1   
    23    15    44 1   
    24    16    17 1   
    25    16    20 1   
    26    16    45 1   
    27    17    18 1   
    28    17    19 1   
    29    20    21 1   
    30    20    46 1   
    31    21    22 2   
    32    21    23 1   
    33    23    24 1   
    34    23    27 1   
    35    23    47 1   
    36    24    25 1   
    37    24    26 1   
    38    24    48 1   
    39    25    49 1   
    40    25    50 1   
    41    25    51 1   
    42    26    52 1   
    43    26    53 1   
    44    26    54 1   
    45    27    28 1   
    46    27    55 1   
    47    28    29 2   
    48    28    30 1   
    49    30    31 ar  
    50    30    36 ar  
    51    31    32 ar  
    52    31    56 1   
    53    32    33 ar  
    54    32    57 1   
    55    33    34 1   
    56    33    35 ar  
    57    35    36 ar  
    58    35    58 1   
    59    36    59 1   
@<TRIPOS>SUBSTRUCTURE
     1 2F9         1 TEMP              0 ****  ****    0 ROOT
