@<TRIPOS>MOLECULE
molecule
   32    34     1     0     0
SMALL
bcc


@<TRIPOS>ATOM
      1 O5'          0.0000     0.0000     0.0000 oh         1 2FA      -0.594800
      2 C5'          1.4280     0.0000     0.0000 c3         1 2FA       0.148400
      3 C4'          1.9380     0.0000     1.4420 c3         1 2FA       0.131100
      4 O4'          1.5980    -1.2420     2.0960 os         1 2FA      -0.402600
      5 C1'          2.5080    -1.3480     3.2110 c3         1 2FA       0.254800
      6 N9           2.6100    -2.7400     3.6560 na         1 2FA      -0.251000
      7 C4           3.0150    -3.1690     4.8940 ca         1 2FA       0.497800
      8 N3           3.4150    -2.5680     6.0110 nb         1 2FA      -0.803000
      9 C2           3.7500    -3.2760     7.0720 ca         1 2FA       0.951200
     10 F            4.1520    -2.6270     8.1870 f          1 2FA      -0.186200
     11 N1           3.7080    -4.5980     7.0840 nb         1 2FA      -0.842000
     12 C6           3.3200    -5.2840     6.0130 ca         1 2FA       0.812200
     13 N6           3.2800    -6.6660     6.0340 nv         1 2FA      -0.997500
     14 C5           2.9590    -4.5720     4.8560 ca         1 2FA      -0.213200
     15 N7           2.5220    -4.9210     3.6210 nc         1 2FA      -0.581100
     16 C8           2.3200    -3.8470     2.9140 cd         1 2FA       0.433700
     17 C2'          3.8670    -0.8570     2.6630 c3         1 2FA       0.089100
     18 O2'          4.5730    -0.1080     3.6530 oh         1 2FA      -0.557800
     19 C3'          3.4830     0.0480     1.4690 c3         1 2FA       0.089100
     20 O3'          3.9380     1.3850     1.6880 oh         1 2FA      -0.567800
     21 H5'         -0.3140    -0.2340    -0.8570 ho         1 2FA       0.407000
     22 H5'1         1.7900     0.8840    -0.5110 h1         1 2FA       0.031700
     23 H5'2         1.7890    -0.8850    -0.5110 h1         1 2FA       0.031700
     24 H4'          1.5280     0.8380     1.9920 h1         1 2FA       0.094700
     25 H1'          2.1810    -0.7100     4.0230 h2         1 2FA       0.115700
     26 HN61         3.0510    -7.1470     6.8820 hn         1 2FA       0.452800
     27 HN62         3.5060    -7.1860     5.2100 hn         1 2FA       0.452800
     28 H8           1.9730    -3.8350     1.8880 h5         1 2FA       0.090800
     29 H2'          4.4590    -1.6980     2.3220 h1         1 2FA       0.054700
     30 H1           5.4960    -0.2870     3.5840 ho         1 2FA       0.409000
     31 H3'          3.8890    -0.3510     0.5470 h1         1 2FA       0.046700
     32 H2           4.5700     1.6140     1.0270 ho         1 2FA       0.404000
@<TRIPOS>BOND
     1     1     2 1   
     2     1    21 1   
     3     2     3 1   
     4     2    22 1   
     5     2    23 1   
     6     3     4 1   
     7     3    19 1   
     8     3    24 1   
     9     4     5 1   
    10     5     6 1   
    11     5    17 1   
    12     5    25 1   
    13     6     7 1   
    14     6    16 1   
    15     7     8 ar  
    16     7    14 ar  
    17     8     9 ar  
    18     9    10 1   
    19     9    11 ar  
    20    11    12 ar  
    21    12    13 1   
    22    12    14 ar  
    23    13    26 1   
    24    13    27 1   
    25    14    15 1   
    26    15    16 2   
    27    16    28 1   
    28    17    18 1   
    29    17    19 1   
    30    17    29 1   
    31    18    30 1   
    32    19    20 1   
    33    19    31 1   
    34    20    32 1   
@<TRIPOS>SUBSTRUCTURE
     1 2FA         1 TEMP              0 ****  ****    0 ROOT
