@<TRIPOS>MOLECULE
molecule
   50    54     1     0     0
SMALL
bcc


@<TRIPOS>ATOM
      1 C1           0.0000     0.0000     0.0000 c3         1 2FB      -0.119400
      2 C2           1.5070     0.0000     0.0000 cc         1 2FB       0.454700
      3 N3           2.2380     0.0000     1.0530 nd         1 2FB      -0.674000
      4 C4           3.5670     0.0010     0.8610 cd         1 2FB       0.222000
      5 C5           3.8990     0.0020    -0.4520 cc         1 2FB      -0.175700
      6 S6           2.4810    -0.0050    -1.4020 ss         1 2FB       0.024700
      7 C7           5.4110     0.0030    -0.5170 c3         1 2FB       0.318100
      8 N8           5.8640     0.0020     0.8770 n2         1 2FB      -0.477900
      9 C9           4.8250     0.0010     1.6530 cf         1 2FB       0.383200
     10 N10          4.8800     0.0000     3.0300 nz         1 2FB      -0.722600
     11 C11          5.9010    -1.2330    -1.2260 ca         1 2FB      -0.143300
     12 C12          6.1580    -2.3860    -0.5070 ca         1 2FB      -0.067000
     13 C13          6.6080    -3.5200    -1.1540 ca         1 2FB      -0.183500
     14 C14          6.8030    -3.5020    -2.5280 ca         1 2FB       0.175100
     15 C15          6.5450    -2.3440    -3.2470 ca         1 2FB      -0.183500
     16 C16          6.0900    -1.2140    -2.5960 ca         1 2FB      -0.067000
     17 O17          7.2470    -4.6150    -3.1670 os         1 2FB      -0.314900
     18 C18          7.4240    -4.5250    -4.5820 c3         1 2FB       0.123700
     19 C19          5.9010     1.2400    -1.2240 ca         1 2FB      -0.087300
     20 C20          5.1220     1.8310    -2.2040 ca         1 2FB      -0.123000
     21 C21          5.5670     2.9660    -2.8560 ca         1 2FB      -0.109000
     22 C22          6.7900     3.5170    -2.5330 ca         1 2FB      -0.101000
     23 C23          7.5780     2.9260    -1.5480 cp         1 2FB      -0.013000
     24 C24          7.1230     1.7840    -0.8890 ca         1 2FB      -0.100000
     25 C25          8.8950     3.5130    -1.1960 cp         1 2FB      -0.307600
     26 C26          9.3650     4.6590    -1.8420 ca         1 2FB       0.470700
     27 N27         10.5440     5.1490    -1.4990 nb         1 2FB      -0.725500
     28 C28         11.2720     4.5730    -0.5620 ca         1 2FB       0.694900
     29 N29         10.8650     3.4900     0.0710 nb         1 2FB      -0.725500
     30 C30          9.6970     2.9380    -0.2070 ca         1 2FB       0.470700
     31 H11C        -0.3610     0.8650     0.5430 hc         1 2FB       0.074367
     32 H12C        -0.3610    -0.9030     0.4780 hc         1 2FB       0.074367
     33 H13C        -0.3610     0.0380    -1.0210 hc         1 2FB       0.074367
     34 H101         4.2650    -0.7030     3.3880 hn         1 2FB       0.475133
     35 H102         5.8160    -0.1920     3.3260 hn         1 2FB       0.475133
     36 H12          6.0050    -2.3990     0.5650 ha         1 2FB       0.131500
     37 H16          5.8880    -0.3100    -3.1580 ha         1 2FB       0.131500
     38 H13          6.8090    -4.4230    -0.5900 ha         1 2FB       0.155500
     39 H15          6.6950    -2.3280    -4.3200 ha         1 2FB       0.155500
     40 H181         8.1490    -3.7510    -4.8070 h1         1 2FB       0.051033
     41 H182         7.7800    -5.4740    -4.9630 h1         1 2FB       0.051033
     42 H183         6.4780    -4.2800    -5.0500 h1         1 2FB       0.051033
     43 H20          4.1610     1.4020    -2.4610 ha         1 2FB       0.130000
     44 H24          7.7330     1.3210    -0.1220 ha         1 2FB       0.147000
     45 H21          4.9530     3.4240    -3.6220 ha         1 2FB       0.150000
     46 H22          7.1370     4.4050    -3.0470 ha         1 2FB       0.149000
     47 H26          8.7730     5.1390    -2.6120 h4         1 2FB       0.030600
     48 H30          9.3700     2.0480     0.3180 h4         1 2FB       0.030600
     49 H28         12.2340     5.0000    -0.3070 h5         1 2FB       0.072100
     50 H103         4.6000     0.8970     3.3750 hn         1 2FB       0.475133
@<TRIPOS>BOND
     1     1     2 1
     2     2     3 2
     3     2     6 1
     4     3     4 1
     5     4     5 2
     6     4     9 1
     7     5     6 1
     8     5     7 1
     9     7     8 1
    10     7    11 1
    11     7    19 1
    12     8     9 2
    13     9    10 1
    14    11    12 ar
    15    11    16 ar
    16    12    13 ar
    17    13    14 ar
    18    14    15 ar
    19    14    17 1
    20    15    16 ar
    21    17    18 1
    22    19    20 ar
    23    19    24 ar
    24    20    21 ar
    25    21    22 ar
    26    22    23 ar
    27    23    24 ar
    28    23    25 1
    29    25    26 ar
    30    25    30 ar
    31    26    27 ar
    32    27    28 ar
    33    28    29 ar
    34    29    30 ar
    35     1    31 1
    36     1    32 1
    37     1    33 1
    38    10    34 1
    39    10    35 1
    40    12    36 1
    41    16    37 1
    42    13    38 1
    43    15    39 1
    44    18    40 1
    45    18    41 1
    46    18    42 1
    47    20    43 1
    48    24    44 1
    49    21    45 1
    50    22    46 1
    51    26    47 1
    52    30    48 1
    53    28    49 1
    54    50    10 1
@<TRIPOS>SUBSTRUCTURE
     1 2FB         1 TEMP              0 ****  ****    0 ROOT
