@<TRIPOS>MOLECULE
2FB
   50    54     1     0     0
SMALL
bcc


@<TRIPOS>ATOM
      1 C1           0.0000     0.0000     0.0000 c3         1 2FB      -0.003400
      2 C2           1.5070     0.0000     0.0000 cc         1 2FB       0.466700
      3 N3           2.2380     0.0000     1.0530 nd         1 2FB      -0.546000
      4 C4           3.5670     0.0010     0.8610 cd         1 2FB       0.186000
      5 C5           3.8990     0.0020    -0.4520 cc         1 2FB      -0.117700
      6 S6           2.4810    -0.0050    -1.4020 ss         1 2FB      -0.115300
      7 C7           5.4110     0.0030    -0.5170 c3         1 2FB       0.338100
      8 N8           5.8640     0.0020     0.8770 n2         1 2FB      -0.356900
      9 C9           4.8250     0.0010     1.6530 cf         1 2FB       0.107200
     10 N10          4.8800     0.0000     3.0300 nz         1 2FB       0.227400
     11 C11          5.9010    -1.2330    -1.2260 ca         1 2FB      -0.173300
     12 C12          6.1580    -2.3860    -0.5070 ca         1 2FB      -0.039000
     13 C13          6.6080    -3.5200    -1.1540 ca         1 2FB      -0.165500
     14 C14          6.8030    -3.5020    -2.5280 ca         1 2FB       0.188100
     15 C15          6.5450    -2.3440    -3.2470 ca         1 2FB      -0.165500
     16 C16          6.0900    -1.2140    -2.5960 ca         1 2FB      -0.039000
     17 O17          7.2470    -4.6150    -3.1670 os         1 2FB      -0.296900
     18 C18          7.4240    -4.5250    -4.5820 c3         1 2FB       0.243700
     19 C19          5.9010     1.2400    -1.2240 ca         1 2FB      -0.111300
     20 C20          5.1220     1.8310    -2.2040 ca         1 2FB      -0.110000
     21 C21          5.5670     2.9660    -2.8560 ca         1 2FB      -0.074000
     22 C22          6.7900     3.5170    -2.5330 ca         1 2FB      -0.076000
     23 C23          7.5780     2.9260    -1.5480 cp         1 2FB      -0.002000
     24 C24          7.1230     1.7840    -0.8890 ca         1 2FB      -0.087000
     25 C25          8.8950     3.5130    -1.1960 cp         1 2FB      -0.297600
     26 C26          9.3650     4.6590    -1.8420 ca         1 2FB       0.448200
     27 N27         10.5440     5.1490    -1.4990 nb         1 2FB      -0.615000
     28 C28         11.2720     4.5730    -0.5620 ca         1 2FB       0.643900
     29 N29         10.8650     3.4900     0.0710 nb         1 2FB      -0.615000
     30 C30          9.6970     2.9380    -0.2070 ca         1 2FB       0.448200
     31 H11C        -0.3610     0.8650     0.5430 hc         1 2FB       0.032700
     32 H12C        -0.3610    -0.9030     0.4780 hc         1 2FB       0.032700
     33 H13C        -0.3610     0.0380    -1.0210 hc         1 2FB       0.032700
     34 H101         4.2650    -0.7030     3.3880 hn         1 2FB       0.218133
     35 H102         5.8160    -0.1920     3.3260 hn         1 2FB       0.218133
     36 H12          6.0050    -2.3990     0.5650 ha         1 2FB       0.103000
     37 H16          5.8880    -0.3100    -3.1580 ha         1 2FB       0.103000
     38 H13          6.8090    -4.4230    -0.5900 ha         1 2FB       0.131000
     39 H15          6.6950    -2.3280    -4.3200 ha         1 2FB       0.131000
     40 H181         8.1490    -3.7510    -4.8070 h1         1 2FB       0.004700
     41 H182         7.7800    -5.4740    -4.9630 h1         1 2FB       0.004700
     42 H183         6.4780    -4.2800    -5.0500 h1         1 2FB       0.004700
     43 H20          4.1610     1.4020    -2.4610 ha         1 2FB       0.120000
     44 H24          7.7330     1.3210    -0.1220 ha         1 2FB       0.124000
     45 H21          4.9530     3.4240    -3.6220 ha         1 2FB       0.118000
     46 H22          7.1370     4.4050    -3.0470 ha         1 2FB       0.124000
     47 H26          8.7730     5.1390    -2.6120 h4         1 2FB      -0.011400
     48 H30          9.3700     2.0480     0.3180 h4         1 2FB      -0.011400
     49 H28         12.2340     5.0000    -0.3070 h5         1 2FB       0.009100
     50 H103         4.6000     0.8970     3.3750 hn         1 2FB       0.218133
@<TRIPOS>BOND
     1     1     2 1   
     2     1    31 1   
     3     1    32 1   
     4     1    33 1   
     5     2     3 2   
     6     2     6 1   
     7     3     4 1   
     8     4     5 2   
     9     4     9 1   
    10     5     6 1   
    11     5     7 1   
    12     7     8 1   
    13     7    11 1   
    14     7    19 1   
    15     8     9 2   
    16     9    10 1   
    17    10    34 1   
    18    10    35 1   
    19    10    50 1   
    20    11    12 ar  
    21    11    16 ar  
    22    12    13 ar  
    23    12    36 1   
    24    13    14 ar  
    25    13    38 1   
    26    14    15 ar  
    27    14    17 1   
    28    15    16 ar  
    29    15    39 1   
    30    16    37 1   
    31    17    18 1   
    32    18    40 1   
    33    18    41 1   
    34    18    42 1   
    35    19    20 ar  
    36    19    24 ar  
    37    20    21 ar  
    38    20    43 1   
    39    21    22 ar  
    40    21    45 1   
    41    22    23 ar  
    42    22    46 1   
    43    23    24 ar  
    44    23    25 1   
    45    24    44 1   
    46    25    26 ar  
    47    25    30 ar  
    48    26    27 ar  
    49    26    47 1   
    50    27    28 ar  
    51    28    29 ar  
    52    28    49 1   
    53    29    30 ar  
    54    30    48 1   
@<TRIPOS>SUBSTRUCTURE
     1 2FB         1 TEMP              0 ****  ****    0 ROOT
