@<TRIPOS>MOLECULE
2FC
   57    60     1     0     0
SMALL
bcc


@<TRIPOS>ATOM
      1 C4           0.0000     0.0000     0.0000 ca         1 2FC      -0.059000
      2 C5           0.0130     0.0010     2.4150 ca         1 2FC      -0.059000
      3 C6          -6.2740    -3.2210     2.7950 ca         1 2FC      -0.091000
      4 C7          -5.6410    -4.0340     1.8810 ca         1 2FC      -0.118000
      5 C8          -4.1620    -2.2290     1.3280 ca         1 2FC      -0.152000
      6 C10         -5.8570    -1.9080     2.9840 ca         1 2FC      -0.092300
      7 C13         -2.1730     0.0000     1.2190 c          1 2FC       0.599700
      8 C15         -6.5930    -1.0810     4.0060 c3         1 2FC       0.036900
      9 C17         -4.8010     0.6110     3.7060 c3         1 2FC      -0.037400
     10 C20         -1.8010    -8.5000    -0.1860 c3         1 2FC       0.137800
     11 C21         -0.8030    -6.5110    -1.1500 c3         1 2FC       0.137800
     12 C22         -4.3050     0.0020     2.3970 c3         1 2FC       0.083000
     13 C1           2.0750     0.0000     1.1960 ca         1 2FC      -0.077000
     14 C2           1.3790     0.0000     0.0000 ca         1 2FC      -0.112000
     15 C3           1.3920     0.0000     2.4000 ca         1 2FC      -0.112000
     16 C9          -0.6950     0.0000     1.2120 ca         1 2FC      -0.161600
     17 C11         -4.8040    -1.4130     2.2490 ca         1 2FC      -0.086300
     18 C12         -4.5720    -3.5390     1.1450 ca         1 2FC      -0.076400
     19 C14         -3.8870    -5.6920     0.3980 c          1 2FC       0.589100
     20 C16         -6.3190     0.4060     3.7910 c3         1 2FC      -0.018400
     21 C18         -3.2140    -7.9290    -0.3470 c3         1 2FC       0.058500
     22 C19         -2.1750    -5.8590    -1.3510 c3         1 2FC       0.058500
     23 N24         -3.1220    -6.4620    -0.4020 n          1 2FC      -0.182800
     24 N25         -0.9380    -7.9710    -1.2510 n3         1 2FC      -0.544600
     25 N26         -3.9200    -4.3570     0.2140 ns         1 2FC      -0.057100
     26 N27         -2.8410     0.0020     2.3900 ns         1 2FC      -0.184900
     27 O28         -2.7860     0.0010     0.1700 o          1 2FC      -0.658100
     28 O29         -4.5450    -6.2010     1.2840 o          1 2FC      -0.700100
     29 H1          -0.5430    -0.0000    -0.9370 ha         1 2FC       0.114000
     30 H2          -0.5190     0.0010     3.3580 ha         1 2FC       0.114000
     31 H3          -7.1080    -3.6070     3.3700 ha         1 2FC       0.105000
     32 H4          -5.9690    -5.0570     1.7450 ha         1 2FC       0.166000
     33 H5          -3.3280    -1.8410     0.7550 ha         1 2FC       0.142000
     34 H6          -7.6560    -1.2640     3.9130 hc         1 2FC       0.019700
     35 H7          -6.2610    -1.3650     4.9980 hc         1 2FC       0.019700
     36 H8          -4.5770     1.6710     3.7220 hc         1 2FC       0.018700
     37 H9          -4.3200     0.1180     4.5420 hc         1 2FC       0.018700
     38 H11         -1.8390    -9.5800    -0.2570 h1         1 2FC       0.016450
     39 H12         -0.4210    -6.2510    -0.1700 h1         1 2FC       0.016450
     40 H13         -0.1210    -6.1590    -1.9140 h1         1 2FC       0.016450
     41 H14         -4.6710     0.5950     1.5680 h1         1 2FC       0.062700
     42 H15          3.1580    -0.0000     1.1900 ha         1 2FC       0.103000
     43 H16          1.9200    -0.0000    -0.9390 ha         1 2FC       0.106500
     44 H17          1.9420     0.0000     3.3330 ha         1 2FC       0.106500
     45 H18         -6.7820     0.7310     2.8680 hc         1 2FC       0.018700
     46 H19         -6.7160     0.9730     4.6250 hc         1 2FC       0.018700
     47 H20         -3.8220    -8.2240     0.4990 h1         1 2FC       0.031950
     48 H21         -3.6530    -8.3000    -1.2650 h1         1 2FC       0.031950
     49 H22         -2.5150    -6.0350    -2.3650 h1         1 2FC       0.031950
     50 H23         -2.1020    -4.7950    -1.1660 h1         1 2FC       0.031950
     51 H24          0.9790    -8.2430    -2.0520 h1         1 2FC       0.001367
     52 H25          0.8730    -8.4160    -0.2950 h1         1 2FC       0.001367
     53 H26          0.2510    -9.6930    -1.3480 h1         1 2FC       0.001367
     54 H28         -3.5250    -3.9570    -0.6140 hn         1 2FC       0.175500
     55 H29         -2.3360     0.0390     3.2530 hn         1 2FC       0.181500
     56 H10         -1.4030    -8.2090     0.7780 h1         1 2FC       0.016450
     57 C23          0.3780    -8.6230    -1.2350 c3         1 2FC       0.189100
@<TRIPOS>BOND
     1     1    14 ar  
     2     1    16 ar  
     3     1    29 1   
     4     2    15 ar  
     5     2    16 ar  
     6     2    30 1   
     7     3     4 ar  
     8     3     6 ar  
     9     3    31 1   
    10     4    18 ar  
    11     4    32 1   
    12     5    17 ar  
    13     5    18 ar  
    14     5    33 1   
    15     6     8 1   
    16     6    17 ar  
    17     7    16 1   
    18     7    26 1   
    19     7    27 2   
    20     8    20 1   
    21     8    34 1   
    22     8    35 1   
    23     9    12 1   
    24     9    20 1   
    25     9    36 1   
    26     9    37 1   
    27    10    21 1   
    28    10    24 1   
    29    10    38 1   
    30    10    56 1   
    31    11    22 1   
    32    11    24 1   
    33    11    39 1   
    34    11    40 1   
    35    12    17 1   
    36    12    26 1   
    37    12    41 1   
    38    13    14 ar  
    39    13    15 ar  
    40    13    42 1   
    41    14    43 1   
    42    15    44 1   
    43    18    25 1   
    44    19    23 1   
    45    19    25 1   
    46    19    28 2   
    47    20    45 1   
    48    20    46 1   
    49    21    23 1   
    50    21    47 1   
    51    21    48 1   
    52    22    23 1   
    53    22    49 1   
    54    22    50 1   
    55    24    57 1   
    56    25    54 1   
    57    26    55 1   
    58    51    57 1   
    59    52    57 1   
    60    53    57 1   
@<TRIPOS>SUBSTRUCTURE
     1 2FC         1 TEMP              0 ****  ****    0 ROOT
