@<TRIPOS>MOLECULE
molecule
   31    33     1     0     0
SMALL
bcc


@<TRIPOS>ATOM
      1 O5'          0.0000     0.0000     0.0000 oh         1 2FD      -0.597800
      2 C5'          1.4300     0.0000     0.0000 c3         1 2FD       0.149400
      3 C4'          1.9390     0.0000     1.4430 c3         1 2FD       0.141100
      4 O4'          1.6880    -1.2760     2.0760 os         1 2FD      -0.403600
      5 C1'          2.6040    -1.3810     3.1790 c3         1 2FD       0.259800
      6 N9           3.0170    -2.7760     3.3520 na         1 2FD      -0.254000
      7 C4           3.4940    -3.3440     4.5060 ca         1 2FD       0.500800
      8 N3           3.7330    -2.9070     5.7380 nb         1 2FD      -0.825000
      9 C2           4.2090    -3.7210     6.6590 ca         1 2FD       0.961200
     10 F            4.4390    -3.2370     7.9000 f          1 2FD      -0.187200
     11 N1           4.4700    -4.9940     6.4140 nb         1 2FD      -0.857000
     12 C6           4.2610    -5.5190     5.2110 ca         1 2FD       0.816200
     13 N6           4.5380    -6.8530     4.9630 nv         1 2FD      -0.976500
     14 C5           3.7600    -4.6880     4.1940 ca         1 2FD      -0.223200
     15 N7           3.4290    -4.8700     2.8930 nc         1 2FD      -0.586100
     16 C8           2.9950    -3.7490     2.3950 cd         1 2FD       0.433700
     17 C2'          3.8310    -0.5100     2.8450 c3         1 2FD      -0.153400
     18 C3'          3.4830     0.1260     1.4770 c3         1 2FD       0.110100
     19 O3'          3.8850     1.4970     1.4360 oh         1 2FD      -0.590800
     20 H5'         -0.3140    -0.0230    -0.8890 ho         1 2FD       0.407000
     21 H5'1         1.7910     0.8850    -0.5110 h1         1 2FD       0.034200
     22 H5'2         1.7910    -0.8850    -0.5110 h1         1 2FD       0.034200
     23 H4'          1.4830     0.8000     2.0130 h1         1 2FD       0.088700
     24 H1'          2.1320    -1.0170     4.0830 h2         1 2FD       0.098700
     25 HN61         4.3830    -7.2350     4.0510 hn         1 2FD       0.454800
     26 HN62         4.8930    -7.4340     5.6960 hn         1 2FD       0.454800
     27 H8           2.6660    -3.6090     1.3730 h5         1 2FD       0.088800
     28 H2'1         3.9650     0.2580     3.5960 hc         1 2FD       0.081200
     29 H2'2         4.7190    -1.1250     2.7600 hc         1 2FD       0.081200
     30 H3'          3.9310    -0.4380     0.6680 h1         1 2FD       0.049700
     31 H1           4.7140     1.5690     0.9920 ho         1 2FD       0.411000
@<TRIPOS>BOND
     1     1     2 1   
     2     1    20 1   
     3     2     3 1   
     4     2    21 1   
     5     2    22 1   
     6     3     4 1   
     7     3    18 1   
     8     3    23 1   
     9     4     5 1   
    10     5     6 1   
    11     5    17 1   
    12     5    24 1   
    13     6     7 1   
    14     6    16 1   
    15     7     8 ar  
    16     7    14 ar  
    17     8     9 ar  
    18     9    10 1   
    19     9    11 ar  
    20    11    12 ar  
    21    12    13 1   
    22    12    14 ar  
    23    13    25 1   
    24    13    26 1   
    25    14    15 1   
    26    15    16 2   
    27    16    27 1   
    28    17    18 1   
    29    17    28 1   
    30    17    29 1   
    31    18    19 1   
    32    18    30 1   
    33    19    31 1   
@<TRIPOS>SUBSTRUCTURE
     1 2FD         1 TEMP              0 ****  ****    0 ROOT
