@<TRIPOS>MOLECULE
2FF
   56    60     1     0     0
SMALL
bcc


@<TRIPOS>ATOM
      1 C1          0.1130    0.1150   -0.0560 ca        1 2FF     -0.044000
      2 C2          1.4700    0.0700    0.1800 ca        1 2FF     -0.154300
      3 C3          1.9670    0.2830    1.4960 ca        1 2FF      0.186100
      4 C4          1.1230    0.5320    2.5790 ca        1 2FF     -0.155000
      5 C5         -0.2460    0.5730    2.3210 ca        1 2FF     -0.053000
      6 C6         -0.7530    0.3670    1.0290 ca        1 2FF     -0.257300
      7 O13         3.3330    0.2230    1.5710 os        1 2FF     -0.290900
      8 C8          3.8480   -0.0260    0.2240 c3        1 2FF      0.117400
      9 C7          2.6380   -0.1520   -0.7470 c3        1 2FF     -0.020700
     10 C10         2.5810   -1.5410   -1.3740 c3        1 2FF     -0.098400
     11 C11         3.6680   -1.7410   -2.4360 c3        1 2FF      0.075500
     12 N22         3.7080   -0.7010   -3.4380 n         1 2FF     -0.439800
     13 C13         3.7570    0.6360   -2.8760 c3        1 2FF      0.075500
     14 C14         2.6800    0.9210   -1.8290 c3        1 2FF     -0.098400
     15 C15         3.0930   -0.8670   -4.6890 c         1 2FF      0.587600
     16 C32         3.1660   -2.1540   -5.3920 cc        1 2FF      0.172200
     17 O35         4.0440   -3.1550   -4.9580 os        1 2FF     -0.343800
     18 C18         3.9190   -4.2080   -5.8810 cc        1 2FF      0.418700
     19 C19         2.9920   -3.8760   -6.8620 cd        1 2FF     -0.250300
     20 C20         2.5140   -2.5550   -6.5500 cd        1 2FF     -0.165300
     21 C21         4.7030   -5.3330   -5.6670 cg        1 2FF     -0.246000
     22 C22         5.3780   -6.3120   -5.5060 ch        1 2FF     -0.014000
     23 C46         6.1650   -7.4630   -5.3270 ca        1 2FF     -0.008000
     24 C24         5.9130   -8.6180   -6.0860 ca        1 2FF     -0.096500
     25 C25         6.6990   -9.7540   -5.9060 ca        1 2FF     -0.132500
     26 C26         7.7370   -9.7500   -4.9740 ca        1 2FF     -0.105000
     27 C27         7.9920   -8.6040   -4.2190 ca        1 2FF     -0.132500
     28 C28         7.2130   -7.4630   -4.3900 ca        1 2FF     -0.096500
     29 O61         2.5400    0.0990   -5.2550 o         1 2FF     -0.584100
     30 C30        -2.2110    0.4710    0.7860 c3        1 2FF      0.188100
     31 N64        -2.8760   -0.8720    0.9370 n4        1 2FF     -0.848600
     32 H1         -0.2840   -0.0230   -1.0730 ha        1 2FF      0.144000
     33 H4          1.5280    0.7020    3.5870 ha        1 2FF      0.179000
     34 H5         -0.9360    0.7910    3.1520 ha        1 2FF      0.139000
     35 H81         4.5020    0.8480   -0.0180 h1        1 2FF      0.085200
     36 H82         4.4430   -0.9690    0.2970 h1        1 2FF      0.085200
     37 H101        2.7120   -2.3250   -0.5840 hc        1 2FF      0.057700
     38 H102        1.5690   -1.6850   -1.8360 hc        1 2FF      0.057700
     39 H111        3.5140   -2.7480   -2.9140 h1        1 2FF      0.075700
     40 H112        4.6760   -1.7520   -1.9270 h1        1 2FF      0.075700
     41 H131        4.7730    0.7500   -2.3970 h1        1 2FF      0.075700
     42 H132        3.6680    1.3950   -3.7040 h1        1 2FF      0.075700
     43 H141        1.6760    0.9720   -2.3280 hc        1 2FF      0.057700
     44 H142        2.8850    1.9220   -1.3700 hc        1 2FF      0.057700
     45 H19         2.6890   -4.4850   -7.7100 ha        1 2FF      0.179000
     46 H20         1.7900   -1.9760   -7.1210 ha        1 2FF      0.181000
     47 H24         5.0960   -8.6220   -6.8230 ha        1 2FF      0.141000
     48 H25         6.5000  -10.6560   -6.5040 ha        1 2FF      0.141500
     49 H26         8.3570  -10.6490   -4.8370 ha        1 2FF      0.141000
     50 H27         8.8130   -8.6000   -3.4860 ha        1 2FF      0.141500
     51 H28         7.4180   -6.5590   -3.7970 ha        1 2FF      0.141000
     52 H301       -2.7020    1.1700    1.5240 hx        1 2FF      0.109200
     53 H302       -2.4260    0.8330   -0.2620 hx        1 2FF      0.109200
     54 H641       -2.7160   -1.2320    1.8830 hn        1 2FF      0.454800
     55 H642       -2.4700   -1.5350    0.2700 hn        1 2FF      0.454800
     56 H643       -3.8820   -0.7960    0.7690 hn        1 2FF      0.454800
@<TRIPOS>BOND
     1    1    2 ar
     2    1    6 ar
     3    1   32 1
     4    2    3 ar
     5    2    9 1
     6    3    4 ar
     7    3    7 1
     8    4    5 ar
     9    4   33 1
    10    5    6 ar
    11    5   34 1
    12    6   30 1
    13    7    8 1
    14    8    9 1
    15    8   35 1
    16    8   36 1
    17    9   10 1
    18    9   14 1
    19   10   11 1
    20   10   37 1
    21   10   38 1
    22   11   12 1
    23   11   39 1
    24   11   40 1
    25   12   13 1
    26   12   15 1
    27   13   14 1
    28   13   41 1
    29   13   42 1
    30   14   43 1
    31   14   44 1
    32   15   16 1
    33   15   29 2
    34   16   17 1
    35   16   20 2
    36   17   18 1
    37   18   19 2
    38   18   21 1
    39   19   20 1
    40   19   45 1
    41   20   46 1
    42   21   22 3
    43   22   23 1
    44   23   24 ar
    45   23   28 ar
    46   24   25 ar
    47   24   47 1
    48   25   26 ar
    49   25   48 1
    50   26   27 ar
    51   26   49 1
    52   27   28 ar
    53   27   50 1
    54   28   51 1
    55   30   31 1
    56   30   52 1
    57   30   53 1
    58   31   54 1
    59   31   55 1
    60   31   56 1
@<TRIPOS>SUBSTRUCTURE
     1 2FF         1 TEMP              0 ****  ****    0 ROOT
