@<TRIPOS>MOLECULE
2FN
   89    93     1     0     0
SMALL
bcc


@<TRIPOS>ATOM
      1 C2         -0.6240   -1.7420    0.5630 cc        1 2FN     -0.026700
      2 C4          0.2090   -0.7400    0.0870 cd        1 2FN     -0.153000
      3 C5          0.7860    0.0040    1.1520 cd        1 2FN     -0.102000
      4 C6          0.3700   -0.4600    2.3940 cc        1 2FN     -0.189600
      5 O8          1.7170    1.1360    3.6350 os        1 2FN     -0.107100
      6 C7          0.7690    0.0720    3.6490 cc        1 2FN      0.351200
      7 O31        -3.8670   -1.0040    9.4800 o         1 2FN     -0.594100
      8 C21        -3.6190   -0.4860    8.3770 c         1 2FN      0.672100
      9 C22        -4.4570   -0.7630    7.1290 c3        1 2FN     -0.130700
     10 C30        -3.6880   -1.5810    6.1070 c3        1 2FN     -0.069400
     11 C29        -3.5060   -3.0310    6.5530 c3        1 2FN      0.159800
     12 N25        -4.7610   -3.6990    6.8790 n3        1 2FN     -0.720600
     13 C26        -4.5250   -5.0870    7.3190 c3        1 2FN      0.181500
     14 C28        -5.8000   -5.7890    7.7920 c3        1 2FN     -0.094100
     15 C27        -3.9000   -5.9410    6.2120 c3        1 2FN     -0.094100
     16 C24        -5.5490   -2.9450    7.8480 c3        1 2FN      0.159800
     17 C23        -5.7510   -1.4760    7.4840 c3        1 2FN     -0.069400
     18 C19        -1.6660    0.7710    9.2230 ca        1 2FN      0.031600
     19 C14        -0.2630    0.7350    8.9730 ca        1 2FN      0.087100
     20 O13         0.1240    0.2760    7.7200 os        1 2FN     -0.343900
     21 C11         1.2670    0.7670    5.7280 cd        1 2FN      0.306600
     22 N9          1.9830    1.5190    4.8630 nc        1 2FN     -0.350300
     23 C10         0.4600   -0.1870    4.9740 cd        1 2FN     -0.341600
     24 S3         -0.6850   -1.7600    2.2390 ss        1 2FN      0.089200
     25 CL1        -1.4760   -2.8170   -0.3900 cl        1 2FN     -0.017400
     26 C18        -2.0720    1.2130   10.5090 ca        1 2FN      0.131100
     27 C17        -1.1320    1.5430   11.4950 ca        1 2FN     -0.170000
     28 C16         0.2280    1.4760   11.2160 ca        1 2FN     -0.100000
     29 C15         0.6670    1.0820    9.9550 ca        1 2FN     -0.183000
     30 O32        -3.4210    1.4200   10.7380 os        1 2FN     -0.330900
     31 C33        -3.9430    0.6770   11.8560 c3        1 2FN      0.137400
     32 C34        -5.4530    0.7610   11.7300 c3        1 2FN     -0.089400
     33 C35        -6.0990    0.1090   12.9370 c3        1 2FN      0.137400
     34 O36        -7.5110    0.3000   12.7790 os        1 2FN     -0.399600
     35 C37        -8.2710   -0.2280   13.8390 c3        1 2FN      0.315900
     36 C46        -9.7340    0.2050   13.6230 c3        1 2FN      0.084100
     37 O47        -9.9310    1.5820   13.8660 oh        1 2FN     -0.578800
     38 C44       -10.6470   -0.6190   14.5430 c3        1 2FN      0.073100
     39 O45       -12.0130   -0.4020   14.2350 oh        1 2FN     -0.603800
     40 C42       -10.3880   -2.1230   14.3520 c3        1 2FN      0.124100
     41 O42       -11.1010   -2.8750   15.3170 oh        1 2FN     -0.595800
     42 C39        -8.8960   -2.4160   14.5630 c3        1 2FN      0.107100
     43 O38        -8.1050   -1.6310   13.6690 os        1 2FN     -0.446600
     44 C40        -8.5710   -3.8750   14.2300 c3        1 2FN      0.141400
     45 O41        -7.2170   -4.1680   14.4920 oh        1 2FN     -0.595800
     46 H1          0.4060   -0.5360   -0.9680 ha        1 2FN      0.171000
     47 H2          1.4760    0.8420    1.0070 ha        1 2FN      0.175000
     48 H3         -4.7240    0.2330    6.6700 hc        1 2FN      0.070700
     49 H4         -4.2540   -1.5560    5.1380 hc        1 2FN      0.053200
     50 H5         -2.6740   -1.1420    5.9190 hc        1 2FN      0.053200
     51 H6         -3.0300   -3.5940    5.7010 h1        1 2FN      0.041700
     52 H7         -2.7860   -3.0470    7.4250 h1        1 2FN      0.041700
     53 H9         -3.8010   -5.0890    8.1950 h1        1 2FN      0.020700
     54 H10        -6.6050   -5.7220    7.0230 hc        1 2FN      0.038700
     55 H11        -5.5740   -6.8670    7.9790 hc        1 2FN      0.038700
     56 H12        -6.1700   -5.3450    8.7470 hc        1 2FN      0.038700
     57 H13        -2.8500   -5.6270    6.0050 hc        1 2FN      0.038700
     58 H14        -3.8800   -7.0080    6.5410 hc        1 2FN      0.038700
     59 H15        -4.4920   -5.8700    5.2690 hc        1 2FN      0.038700
     60 H16        -6.5700   -3.4200    7.8940 h1        1 2FN      0.041700
     61 H17        -5.0910   -2.9910    8.8810 h1        1 2FN      0.041700
     62 H18        -6.2310   -0.9690    8.3620 hc        1 2FN      0.053200
     63 H19        -6.4460   -1.3970    6.6080 hc        1 2FN      0.053200
     64 H20        -2.2740    0.6220    7.2850 hn        1 2FN      0.321500
     65 H21         1.4000    1.9520    7.5370 h1        1 2FN      0.069700
     66 H22         2.2010    0.2960    7.6020 h1        1 2FN      0.069700
     67 H23        -0.2190   -0.9150    5.4060 ha        1 2FN      0.185000
     68 H24        -1.4840    1.8700   12.4830 ha        1 2FN      0.145000
     69 H25         0.9620    1.7380   11.9920 ha        1 2FN      0.139000
     70 H26         1.7440    1.0330    9.7360 ha        1 2FN      0.141000
     71 H27        -3.5940   -0.3870   11.8010 h1        1 2FN      0.043700
     72 H28        -3.5810    1.1560   12.8030 h1        1 2FN      0.043700
     73 H29        -5.7770    1.8310   11.6480 hc        1 2FN      0.074200
     74 H30        -5.7750    0.2370   10.7920 hc        1 2FN      0.074200
     75 H31        -5.8720   -0.9880   12.9790 h1        1 2FN      0.036700
     76 H32        -5.7660    0.5960   13.8920 h1        1 2FN      0.036700
     77 H33        -7.8850    0.0930   14.8480 h2        1 2FN      0.036700
     78 H34       -10.0220    0.0630   12.5430 h1        1 2FN      0.119700
     79 H35        -9.4990    1.8010   14.7010 ho        1 2FN      0.401000
     80 H36       -10.4680   -0.3350   15.6180 h1        1 2FN      0.048700
     81 H37       -12.1250    0.5510   14.1120 ho        1 2FN      0.426000
     82 H38       -10.7060   -2.4280   13.3160 h1        1 2FN      0.065700
     83 H39       -12.0290   -2.6180   15.2310 ho        1 2FN      0.426000
     84 H40        -8.6030   -2.1860   15.6240 h1        1 2FN      0.065700
     85 H41        -9.1650   -4.5450   14.9080 h1        1 2FN      0.064700
     86 H42        -8.8190   -4.0860   13.1560 h1        1 2FN      0.064700
     87 H43        -6.6890   -3.5910   13.9250 ho        1 2FN      0.410000
     88 C12         1.3240    0.8800    7.2100 c3        1 2FN      0.100100
     89 N20        -2.5810    0.4300    8.2140 n         1 2FN     -0.454100
@<TRIPOS>BOND
     1    1    2 2   
     2    1   24 1   
     3    1   25 1   
     4    2    3 1   
     5    2   46 1   
     6    3    4 2   
     7    3   47 1   
     8    4    6 1   
     9    4   24 1   
    10    5    6 1   
    11    5   22 1   
    12    6   23 2   
    13    7    8 2   
    14    8    9 1   
    15    8   89 1   
    16    9   10 1   
    17    9   17 1   
    18    9   48 1   
    19   10   11 1   
    20   10   49 1   
    21   10   50 1   
    22   11   12 1   
    23   11   51 1   
    24   11   52 1   
    25   12   13 1   
    26   12   16 1   
    27   13   14 1   
    28   13   15 1   
    29   13   53 1   
    30   14   54 1   
    31   14   55 1   
    32   14   56 1   
    33   15   57 1   
    34   15   58 1   
    35   15   59 1   
    36   16   17 1   
    37   16   60 1   
    38   16   61 1   
    39   17   62 1   
    40   17   63 1   
    41   18   19 ar  
    42   18   26 ar  
    43   18   89 1   
    44   19   20 1   
    45   19   29 ar  
    46   20   88 1   
    47   21   22 2   
    48   21   23 1   
    49   21   88 1   
    50   23   67 1   
    51   26   27 ar  
    52   26   30 1   
    53   27   28 ar  
    54   27   68 1   
    55   28   29 ar  
    56   28   69 1   
    57   29   70 1   
    58   30   31 1   
    59   31   32 1   
    60   31   71 1   
    61   31   72 1   
    62   32   33 1   
    63   32   73 1   
    64   32   74 1   
    65   33   34 1   
    66   33   75 1   
    67   33   76 1   
    68   34   35 1   
    69   35   36 1   
    70   35   43 1   
    71   35   77 1   
    72   36   37 1   
    73   36   38 1   
    74   36   78 1   
    75   37   79 1   
    76   38   39 1   
    77   38   40 1   
    78   38   80 1   
    79   39   81 1   
    80   40   41 1   
    81   40   42 1   
    82   40   82 1   
    83   41   83 1   
    84   42   43 1   
    85   42   44 1   
    86   42   84 1   
    87   44   45 1   
    88   44   85 1   
    89   44   86 1   
    90   45   87 1   
    91   64   89 1   
    92   65   88 1   
    93   66   88 1   
@<TRIPOS>SUBSTRUCTURE
     1 2FN         1 TEMP              0 ****  ****    0 ROOT
