@<TRIPOS>MOLECULE
2FQ
   25    26     1     0     0
SMALL
bcc


@<TRIPOS>ATOM
      1 O            0.0000     0.0000     0.0000 o          1 2FQ      -0.663500
      2 C6           1.2180     0.0000     0.0000 c          1 2FQ       0.640700
      3 C5           1.9390     0.0000     1.2740 cc         1 2FQ      -0.530200
      4 N3           1.2350     0.0060     2.4820 nz         1 2FQ       0.339600
      5 C4           3.3000    -0.0070     1.2730 cd         1 2FQ       0.187800
      6 N1           1.8810    -0.0070    -1.1710 n          1 2FQ       0.061700
      7 C8           1.1250    -0.0120    -2.4260 c3         1 2FQ       0.034300
      8 C7           3.2520    -0.0080    -1.2110 ca         1 2FQ       0.440200
      9 C3           3.9950    -0.0130    -0.0130 ca         1 2FQ      -0.446400
     10 C2           5.3930    -0.0210    -0.0910 ca         1 2FQ       0.558200
     11 N            5.9550    -0.0270    -1.2880 nb         1 2FQ      -0.625000
     12 N2           3.9090    -0.0140    -2.3670 nb         1 2FQ      -0.655000
     13 C1           5.2250    -0.0270    -2.3880 ca         1 2FQ       0.711300
     14 C            5.9250    -0.0350    -3.7220 c3         1 2FQ      -0.048400
     15 H1           0.6250    -0.7870     2.5160 hn         1 2FQ       0.203800
     16 H2           1.8810    -0.0370     3.2440 hn         1 2FQ       0.203800
     17 H3           3.8440     0.2230     2.1810 ha         1 2FQ       0.119000
     18 H4           1.3890     0.8610    -3.0100 h1         1 2FQ       0.050033
     19 H5           1.3620    -0.9080    -2.9870 h1         1 2FQ       0.050033
     20 H6           0.0640     0.0070    -2.2080 h1         1 2FQ       0.050033
     21 H7           5.9990    -0.0220     0.8070 h4         1 2FQ      -0.001900
     22 H8           6.9970    -0.0670    -3.5670 hc         1 2FQ       0.039700
     23 H9           5.6160    -0.9060    -4.2870 hc         1 2FQ       0.039700
     24 H10          5.6670     0.8630    -4.2710 hc         1 2FQ       0.039700
     25 H33          0.6320     0.8040     2.5120 hn         1 2FQ       0.203800
@<TRIPOS>BOND
     1     1     2 2   
     2     2     3 1   
     3     2     6 1   
     4     3     4 1   
     5     3     5 2   
     6     4    15 1   
     7     4    16 1   
     8     4    25 1   
     9     5     9 1   
    10     5    17 1   
    11     6     7 1   
    12     6     8 1   
    13     7    18 1   
    14     7    19 1   
    15     7    20 1   
    16     8     9 ar  
    17     8    12 ar  
    18     9    10 ar  
    19    10    11 ar  
    20    10    21 1   
    21    11    13 ar  
    22    12    13 ar  
    23    13    14 1   
    24    14    22 1   
    25    14    23 1   
    26    14    24 1   
@<TRIPOS>SUBSTRUCTURE
     1 2FQ         1 TEMP              0 ****  ****    0 ROOT
