@<TRIPOS>MOLECULE
molecule
   25    26     1     0     0
SMALL
bcc


@<TRIPOS>ATOM
      1 O            0.0000     0.0000     0.0000 o          1 2FQ      -0.617500
      2 C6           1.2180     0.0000     0.0000 c          1 2FQ       0.721700
      3 C5           1.9390     0.0000     1.2740 cc         1 2FQ      -0.256200
      4 N3           1.2350     0.0060     2.4820 nz         1 2FQ      -0.634400
      5 C4           3.3000    -0.0070     1.2730 cd         1 2FQ       0.088800
      6 N1           1.8810    -0.0070    -1.1710 n          1 2FQ      -0.382300
      7 C8           1.1250    -0.0120    -2.4260 c3         1 2FQ       0.081300
      8 C7           3.2520    -0.0080    -1.2110 ca         1 2FQ       0.633200
      9 C3           3.9950    -0.0130    -0.0130 ca         1 2FQ      -0.432400
     10 C2           5.3930    -0.0210    -0.0910 ca         1 2FQ       0.560200
     11 N            5.9550    -0.0270    -1.2880 nb         1 2FQ      -0.739000
     12 N2           3.9090    -0.0140    -2.3670 nb         1 2FQ      -0.772000
     13 C1           5.2250    -0.0270    -2.3880 ca         1 2FQ       0.790300
     14 C            5.9250    -0.0350    -3.7220 c3         1 2FQ      -0.138400
     15 H1           0.6250    -0.7870     2.5160 hn         1 2FQ       0.462133
     16 H2           1.8810    -0.0370     3.2440 hn         1 2FQ       0.462133
     17 H3           3.8440     0.2230     2.1810 ha         1 2FQ       0.158000
     18 H4           1.3890     0.8610    -3.0100 h1         1 2FQ       0.082033
     19 H5           1.3620    -0.9080    -2.9870 h1         1 2FQ       0.082033
     20 H6           0.0640     0.0070    -2.2080 h1         1 2FQ       0.082033
     21 H7           5.9990    -0.0220     0.8070 h4         1 2FQ       0.051100
     22 H8           6.9970    -0.0670    -3.5670 hc         1 2FQ       0.084033
     23 H9           5.6160    -0.9060    -4.2870 hc         1 2FQ       0.084033
     24 H10          5.6670     0.8630    -4.2710 hc         1 2FQ       0.084033
     25 H33          0.6320     0.8040     2.5120 hn         1 2FQ       0.462133
@<TRIPOS>BOND
     1     5     9 1
     2     5     3 2
     3    10    11 ar
     4    10     9 ar
     5     4     3 1
     6    11    13 ar
     7     9     8 ar
     8     3     2 1
     9    13    14 1
    10    13    12 ar
    11     8    12 ar
    12     8     6 1
    13     2     6 1
    14     2     1 2
    15     6     7 1
    16     4    15 1
    17     4    16 1
    18     5    17 1
    19     7    18 1
    20     7    19 1
    21     7    20 1
    22    10    21 1
    23    14    22 1
    24    14    23 1
    25    14    24 1
    26    25     4 1
@<TRIPOS>SUBSTRUCTURE
     1 2FQ         1 TEMP              0 ****  ****    0 ROOT
