@<TRIPOS>MOLECULE
2FR
   56    60     1     0     0
SMALL
bcc


@<TRIPOS>ATOM
      1 C30          0.0000     0.0000     0.0000 ca         1 2FR      -0.094000
      2 C28          0.0010     0.0000     2.3940 ca         1 2FR      -0.090000
      3 C27          1.3840    -0.0010     2.3940 ca         1 2FR      -0.090500
      4 C26          2.0750     0.0000     1.1970 ca         1 2FR      -0.094000
      5 C24          2.6080    -1.4210    -1.6210 c3         1 2FR      -0.143000
      6 C23          2.1360    -0.0000    -1.3050 c3         1 2FR      -0.014000
      7 N21          0.4780     1.2060   -13.2410 nz         1 2FR       0.618000
      8 C16          0.7970     0.8040    -8.3250 ca         1 2FR      -0.115000
      9 C17          1.8220     1.5240    -7.7460 ca         1 2FR      -0.097000
     10 C20          0.0350     1.4680   -11.9970 c3         1 2FR       0.030000
     11 C15          0.4350    -0.4270    -7.8080 ca         1 2FR      -0.111000
     12 C12          2.4910     1.0110    -6.6420 ca         1 2FR      -0.041000
     13 C13          2.1270    -0.2250    -6.1250 ca         1 2FR      -0.115000
     14 C14          1.0990    -0.9410    -6.7100 ca         1 2FR      -0.065000
     15 C10          5.2900     3.0800    -5.8970 c2         1 2FR       0.015000
     16 C4           3.8180     1.7730    -4.7150 c2         1 2FR      -0.053000
     17 C5           4.9370     2.6220    -4.5580 c2         1 2FR      -0.297000
     18 C6           5.4460     2.8430    -3.2790 c2         1 2FR       0.086000
     19 C3           3.2680     1.1910    -3.5770 c2         1 2FR      -0.304000
     20 C2           3.8380     1.4640    -2.3450 c2         1 2FR       0.049000
     21 O22         -0.9490     2.1610   -11.8370 o          1 2FR      -0.152000
     22 C19          0.7650     0.9100   -10.8020 c3         1 2FR      -0.121000
     23 N8           3.5320     1.7390    -6.0520 na         1 2FR       0.300000
     24 N9           4.4480     2.5460    -6.7360 n2         1 2FR      -0.214000
     25 N1           4.8900     2.2670    -2.2350 n2         1 2FR      -0.137000
     26 N7           3.2960     0.8870    -1.2000 nu         1 2FR       0.057000
     27 C25          1.3830     0.0000     0.0000 ca         1 2FR      -0.106000
     28 C29         -0.6910     0.0000     1.1970 ca         1 2FR      -0.090500
     29 H30         -0.5420     0.0000    -0.9380 ha         1 2FR       0.105500
     30 H28         -0.5400     0.0000     3.3320 ha         1 2FR       0.108000
     31 H27          1.9250    -0.0010     3.3320 ha         1 2FR       0.107500
     32 H26          3.1580    -0.0010     1.1970 ha         1 2FR       0.105500
     33 H24          2.5000    -2.0420    -0.7400 hc         1 2FR       0.054333
     34 H24A         3.6490    -1.3980    -1.9200 hc         1 2FR       0.054333
     35 H24B         2.0100    -1.8300    -2.4270 hc         1 2FR       0.054333
     36 H23          1.4850     0.3490    -2.0980 h1         1 2FR       0.079000
     37 HN21         1.1450     1.8380   -13.6370 hn         1 2FR       0.082000
     38 HN2A         0.7760     0.6440   -12.4690 DU         1 2FR       0.121000
     39 H17          2.1040     2.4880    -8.1520 ha         1 2FR       0.126000
     40 H15         -0.3700    -0.9900    -8.2640 ha         1 2FR       0.104000
     41 H13          2.6470    -0.6270    -5.2640 ha         1 2FR       0.135000
     42 H14          0.8130    -1.9050    -6.3070 ha         1 2FR       0.115000
     43 H11          6.2380     4.9840    -5.8130 hc         1 2FR       0.057333
     44 H11A         7.3510     3.6100    -5.8580 hc         1 2FR       0.057333
     45 H11B         6.4940     4.1020    -7.3250 hc         1 2FR       0.057333
     46 H6           6.3040     3.4920    -3.1440 h4         1 2FR       0.117000
     47 H3           2.4100     0.5340    -3.6530 ha         1 2FR       0.137000
     48 H19          0.7640    -0.1720   -10.8520 hc         1 2FR       0.106000
     49 H19A         1.7860     1.2710   -10.8030 hc         1 2FR       0.106000
     50 H18          0.0660     2.4440    -9.4700 hc         1 2FR       0.081500
     51 H18A        -0.9560     1.0010    -9.5180 hc         1 2FR       0.081500
     52 HN7          3.7160     1.0580    -0.3070 hn         1 2FR       0.109000
     53 H29         -1.7740     0.0010     1.1970 ha         1 2FR       0.107500
     54 H213        -0.1700     0.7980   -13.8860 hn         1 2FR       0.082000
     55 C11          6.4230     4.0090    -6.2480 c3         1 2FR      -0.036000
     56 C18          0.0650     1.3620    -9.5190 c3         1 2FR      -0.028000
@<TRIPOS>BOND
     1     1    27 1   
     2     1    28 1   
     3     1    29 1   
     4     2     3 1   
     5     2    28 1   
     6     2    30 1   
     7     3     4 1   
     8     3    31 1   
     9     4    27 1   
    10     4    32 1   
    11     5     6 1   
    12     5    33 1   
    13     5    34 1   
    14     5    35 1   
    15     6    26 1   
    16     6    27 1   
    17     6    36 1   
    18     7    10 1   
    19     7    37 1   
    20     7    38 1   
    21     7    54 1   
    22     8     9 1   
    23     8    11 1   
    24     8    56 1   
    25     9    12 1   
    26     9    39 1   
    27    10    21 1   
    28    10    22 1   
    29    10    38 1   
    30    11    14 1   
    31    11    40 1   
    32    12    13 1   
    33    12    23 1   
    34    13    14 1   
    35    13    41 1   
    36    14    42 1   
    37    15    17 1   
    38    15    24 1   
    39    15    55 1   
    40    16    17 1   
    41    16    19 1   
    42    16    23 1   
    43    17    18 1   
    44    18    25 1   
    45    18    46 1   
    46    19    20 1   
    47    19    47 1   
    48    20    25 1   
    49    20    26 1   
    50    22    48 1   
    51    22    49 1   
    52    22    56 1   
    53    23    24 1   
    54    26    52 1   
    55    28    53 1   
    56    43    55 1   
    57    44    55 1   
    58    45    55 1   
    59    50    56 1   
    60    51    56 1   
@<TRIPOS>SUBSTRUCTURE
     1 2FR         1 TEMP              0 ****  ****    0 ROOT
