@<TRIPOS>MOLECULE
molecule
   56    59     1     0     0
SMALL
bcc


@<TRIPOS>ATOM
      1 C30          0.0000     0.0000     0.0000 ca         1 2FR      -0.120500
      2 C28          0.0010     0.0000     2.3940 ca         1 2FR      -0.118000
      3 C27          1.3840    -0.0010     2.3940 ca         1 2FR      -0.119500
      4 C26          2.0750     0.0000     1.1970 ca         1 2FR      -0.120500
      5 C24          2.6080    -1.4210    -1.6210 c3         1 2FR      -0.115100
      6 C23          2.1360    -0.0000    -1.3050 c3         1 2FR       0.287800
      7 N21          0.4780     1.2060   -13.2410 nz         1 2FR      -0.799400
      8 C16          0.7970     0.8040    -8.3250 ca         1 2FR      -0.112300
      9 C17          1.8220     1.5240    -7.7460 ca         1 2FR      -0.128000
     10 C20          0.0350     1.4680   -11.9970 c          1 2FR       0.445100
     11 C15          0.4350    -0.4270    -7.8080 ca         1 2FR      -0.141000
     12 C12          2.4910     1.0110    -6.6420 ca         1 2FR       0.077800
     13 C13          2.1270    -0.2250    -6.1250 ca         1 2FR      -0.138000
     14 C14          1.0990    -0.9410    -6.7100 ca         1 2FR      -0.097000
     15 C10          5.2900     3.0800    -5.8970 cc         1 2FR       0.426900
     16 C4           3.8180     1.7730    -4.7150 ca         1 2FR       0.055800
     17 C5           4.9370     2.6220    -4.5580 ca         1 2FR      -0.431200
     18 C6           5.4460     2.8430    -3.2790 ca         1 2FR       0.551200
     19 C3           3.2680     1.1910    -3.5770 ca         1 2FR      -0.376300
     20 C2           3.8380     1.4640    -2.3450 ca         1 2FR       0.747200
     21 O22         -0.9490     2.1610   -11.8370 o          1 2FR      -0.370100
     22 C19          0.7650     0.9100   -10.8020 c3         1 2FR      -0.177400
     23 N8           3.5320     1.7390    -6.0520 na         1 2FR       0.125800
     24 N9           4.4480     2.5460    -6.7360 nd         1 2FR      -0.538100
     25 N1           4.8900     2.2670    -2.2350 nb         1 2FR      -0.769000
     26 N7           3.2960     0.8870    -1.2000 nu         1 2FR      -0.900900
     27 C25          1.3830     0.0000     0.0000 ca         1 2FR      -0.103300
     28 C29         -0.6910     0.0000     1.1970 ca         1 2FR      -0.119500
     29 H30         -0.5420     0.0000    -0.9380 ha         1 2FR       0.129500
     30 H28         -0.5400     0.0000     3.3320 ha         1 2FR       0.137000
     31 H27          1.9250    -0.0010     3.3320 ha         1 2FR       0.136500
     32 H26          3.1580    -0.0010     1.1970 ha         1 2FR       0.129500
     33 H24          2.5000    -2.0420    -0.7400 hc         1 2FR       0.046700
     34 H24A         3.6490    -1.3980    -1.9200 hc         1 2FR       0.046700
     35 H24B         2.0100    -1.8300    -2.4270 hc         1 2FR       0.046700
     36 H23          1.4850     0.3490    -2.0980 h1         1 2FR       0.062700
     37 HN21         1.1450     1.8380   -13.6370 hn         1 2FR       0.509133
     38 HN2A         0.7760     0.6440   -12.4690 hn         1 2FR       0.509133
     39 H17          2.1040     2.4880    -8.1520 ha         1 2FR       0.151000
     40 H15         -0.3700    -0.9900    -8.2640 ha         1 2FR       0.130000
     41 H13          2.6470    -0.6270    -5.2640 ha         1 2FR       0.162000
     42 H14          0.8130    -1.9050    -6.3070 ha         1 2FR       0.149000
     43 H11          6.2380     4.9840    -5.8130 hc         1 2FR       0.059700
     44 H11A         7.3510     3.6100    -5.8580 hc         1 2FR       0.059700
     45 H11B         6.4940     4.1020    -7.3250 hc         1 2FR       0.059700
     46 H6           6.3040     3.4920    -3.1440 h4         1 2FR       0.032100
     47 H3           2.4100     0.5340    -3.6530 ha         1 2FR       0.143000
     48 H19          0.7640    -0.1720   -10.8520 hc         1 2FR       0.109200
     49 H19A         1.7860     1.2710   -10.8030 hc         1 2FR       0.109200
     50 H18          0.0660     2.4440    -9.4700 hc         1 2FR       0.079700
     51 H18A        -0.9560     1.0010    -9.5180 hc         1 2FR       0.079700
     52 HN7          3.7160     1.0580    -0.3070 hn         1 2FR       0.460800
     53 H29         -1.7740     0.0010     1.1970 ha         1 2FR       0.136500
     54 H213        -0.1700     0.7980   -13.8860 hn         1 2FR       0.509133
     55 C11          6.4230     4.0090    -6.2480 c3         1 2FR      -0.099400
     56 C18          0.0650     1.3620    -9.5190 c3         1 2FR      -0.009100
@<TRIPOS>BOND
     1     1    27 ar
     2     1    28 ar
     3     2     3 ar
     4     2    28 ar
     5     3     4 ar
     6     4    27 ar
     7     5     6 1
     8     6    26 1
     9     6    27 1
    10     7    10 1
    11     8     9 ar
    12     8    11 ar
    13     8    56 1
    14     9    12 ar
    15    10    21 2
    16    10    22 1
    17    11    14 ar
    18    12    13 ar
    19    12    23 1
    20    13    14 ar
    21    55    15 1
    22    15    17 1
    23    15    24 2
    24    16    17 ar
    25    16    19 ar
    26    16    23 1
    27    17    18 ar
    28    18    25 ar
    29    19    20 ar
    30    20    25 ar
    31    20    26 1
    32    22    56 1
    33    23    24 1
    34     1    29 1
    35     2    30 1
    36     3    31 1
    37     4    32 1
    38     5    33 1
    39     5    34 1
    40     5    35 1
    41     6    36 1
    42     7    37 1
    43     7    38 1
    44     9    39 1
    45    11    40 1
    46    13    41 1
    47    14    42 1
    48    55    43 1
    49    55    44 1
    50    55    45 1
    51    18    46 1
    52    19    47 1
    53    22    48 1
    54    22    49 1
    55    56    50 1
    56    56    51 1
    57    26    52 1
    58    28    53 1
    59    54     7 1
@<TRIPOS>SUBSTRUCTURE
     1 2FR         1 TEMP              0 ****  ****    0 ROOT
