@<TRIPOS>MOLECULE
molecule
   59    63     1     0     0
SMALL
bcc


@<TRIPOS>ATOM
      1 C2           0.0000     0.0000     0.0000 c          1 2FS       0.902600
      2 C4           1.5070     0.0000     0.0000 c3         1 2FS      -0.150700
      3 C6           2.0170     0.0000     1.4430 c3         1 2FS      -0.094400
      4 C7           3.5460    -0.0000     1.4440 c3         1 2FS      -0.097400
      5 C8           4.0570    -1.2500     0.7220 c3         1 2FS      -0.105400
      6 C9           3.5480    -1.2490    -0.7200 c3         1 2FS      -0.096400
      7 C16          3.9680    -4.5610    -1.2520 c3         1 2FS      -0.061100
      8 C18          2.4950    -5.9100     0.3040 ca         1 2FS      -0.116300
      9 C19          2.3070    -7.0180     1.1170 ca         1 2FS      -0.037000
     10 C20          3.2960    -7.9720     1.2400 ca         1 2FS      -0.132000
     11 C21          4.4830    -7.8220     0.5470 ca         1 2FS      -0.125000
     12 C22          4.6720    -6.7180    -0.2580 ca         1 2FS      -0.156000
     13 C27          2.2650    -2.6580     2.6760 c3         1 2FS       0.103300
     14 C28          3.4950    -2.6440     3.5480 ca         1 2FS      -0.082300
     15 C29          4.2360    -1.6330     4.1160 ca         1 2FS      -0.122000
     16 C30          5.3440    -1.9390     4.8880 ca         1 2FS      -0.115000
     17 C31          5.7100    -3.2580     5.0900 ca         1 2FS      -0.158000
     18 C32          4.9740    -4.2780     4.5250 ca         1 2FS      -0.066000
     19 O1          -0.6710     1.0510     0.4950 o          1 2FS      -0.845800
     20 O3          -0.6040    -0.9450    -0.4510 o          1 2FS      -0.845800
     21 C10          2.0180    -1.2490    -0.7210 c3         1 2FS      -0.119700
     22 N14          1.8350    -3.7040    -0.4760 n          1 2FS      -0.493800
     23 C15          2.6710    -3.8730    -1.6760 c3         1 2FS       0.099000
     24 C17          3.6800    -5.7530    -0.3780 ca         1 2FS      -0.059300
     25 C23          1.3620    -4.9190     0.1930 c3         1 2FS       0.153000
     26 C25          0.8560    -4.5670     1.5930 c3         1 2FS       0.109000
     27 N26          1.9690    -4.0700     2.4040 n          1 2FS      -0.457800
     28 C33          3.8550    -3.9790     3.7450 ca         1 2FS      -0.161600
     29 C34          2.8880    -4.8310     3.0230 c          1 2FS       0.703100
     30 O35          2.9190    -6.0450     2.9930 o          1 2FS      -0.656500
     31 H1           1.8720     0.8830    -0.5100 hc         1 2FS       0.045700
     32 H2           1.6570     0.8860     1.9520 hc         1 2FS       0.069700
     33 H3           1.6560    -0.8860     1.9520 hc         1 2FS       0.069700
     34 H4           3.9070     0.8840     0.9320 hc         1 2FS       0.028700
     35 H5           3.9060    -0.0030     2.4660 hc         1 2FS       0.028700
     36 H6           5.1400    -1.2470     0.7210 hc         1 2FS       0.043700
     37 H7           3.6930    -2.1340     1.2320 hc         1 2FS       0.043700
     38 H8           3.9080    -2.1350    -1.2290 hc         1 2FS       0.036700
     39 H9           3.9080    -0.3630    -1.2280 hc         1 2FS       0.036700
     40 H12          1.3770    -7.1360     1.6600 ha         1 2FS       0.131000
     41 H13          3.1420    -8.8370     1.8740 ha         1 2FS       0.120000
     42 H14          5.2640    -8.5670     0.6390 ha         1 2FS       0.112000
     43 H15          5.6030    -6.6020    -0.8000 ha         1 2FS       0.114000
     44 H16          1.4350    -2.1990     3.1990 h1         1 2FS       0.114700
     45 H17          2.4620    -2.1350     1.7480 h1         1 2FS       0.114700
     46 H18          3.9530    -0.5990     3.9600 ha         1 2FS       0.146000
     47 H19          5.9270    -1.1420     5.3360 ha         1 2FS       0.123000
     48 H20          6.5780    -3.4900     5.6950 ha         1 2FS       0.121000
     49 H21          5.2630    -5.3100     4.6860 ha         1 2FS       0.136000
     50 H23          1.6600    -1.2450    -1.7430 hc         1 2FS       0.074700
     51 H24          2.9060    -2.8970    -2.0840 h1         1 2FS       0.058200
     52 H25          2.1500    -4.5040    -2.3850 h1         1 2FS       0.058200
     53 H26          0.5580    -5.3570    -0.3870 h1         1 2FS       0.058700
     54 H27          0.0930    -3.8020     1.5190 h1         1 2FS       0.092700
     55 H28          0.4360    -5.4510     2.0580 h1         1 2FS       0.092700
     56 C12          1.5140    -2.4800    -0.0110 c          1 2FS       0.696100
     57 H10          4.5640    -3.8550    -0.6860 hc         1 2FS       0.052700
     58 O13          0.8220    -2.3690     0.9790 o          1 2FS      -0.589100
     59 H11          4.4830    -4.9030    -2.1420 hc         1 2FS       0.052700
@<TRIPOS>BOND
     1    17    18 ar
     2    17    16 ar
     3    18    28 ar
     4    16    15 ar
     5    30    29 2
     6    28    29 1
     7    28    14 ar
     8    29    27 1
     9    15    14 ar
    10    14    13 1
    11    27    13 1
    12    27    26 1
    13    26    25 1
    14     9    10 ar
    15     9     8 ar
    16    25     8 1
    17    25    22 1
    18    10    11 ar
    19     8    24 ar
    20    23    22 1
    21    23     7 1
    22    22    56 1
    23    11    12 ar
    24    24    12 ar
    25    24     7 1
    26     6     5 1
    27     6    21 1
    28     5     4 1
    29    56    58 2
    30    56    21 1
    31    21     2 1
    32     4     3 1
    33     2     3 1
    34     2     1 1
    35     1    20 1
    36     1    19 1
    37     2    31 1
    38     3    32 1
    39     3    33 1
    40     4    34 1
    41     4    35 1
    42     5    36 1
    43     5    37 1
    44     6    38 1
    45     6    39 1
    46     7    57 1
    47     7    59 1
    48     9    40 1
    49    10    41 1
    50    11    42 1
    51    12    43 1
    52    13    44 1
    53    13    45 1
    54    15    46 1
    55    16    47 1
    56    17    48 1
    57    18    49 1
    58    21    50 1
    59    23    51 1
    60    23    52 1
    61    25    53 1
    62    26    54 1
    63    26    55 1
@<TRIPOS>SUBSTRUCTURE
     1 2FS         1 TEMP              0 ****  ****    0 ROOT
