@<TRIPOS>MOLECULE
2FT
   15    14     1     0     0
SMALL
bcc


@<TRIPOS>ATOM
      1 O01         0.2690   -0.4350    0.2140 o         1 2FT     -0.874300
      2 C02         1.2830    0.3030    0.0100 c         1 2FT      0.906600
      3 O03         1.6100    1.2330    0.8060 o         1 2FT     -0.874300
      4 C04         2.0890    0.0780   -1.2740 c3        1 2FT     -0.182400
      5 C05         3.5790    0.0070   -1.0510 c3        1 2FT     -0.090400
      6 C06         4.3900   -0.1100   -2.3660 c3        1 2FT      0.255600
      7 F07         3.9430   -1.1540   -3.1620 f         1 2FT     -0.283300
      8 F08         4.1570    0.9610   -3.2150 f         1 2FT     -0.283300
      9 C09         5.9320   -0.2690   -2.0270 c         1 2FT      0.907600
     10 O10         6.3160   -1.3960   -1.6180 o         1 2FT     -0.826800
     11 O11         6.6720    0.7360   -2.1880 o         1 2FT     -0.826800
     12 H04         1.8630    0.9270   -1.9700 hc        1 2FT      0.023200
     13 H04A        1.7380   -0.8660   -1.7660 hc        1 2FT      0.023200
     14 H05         3.8390   -0.8860   -0.4280 hc        1 2FT      0.062700
     15 H05A        3.9250    0.9260   -0.5140 hc        1 2FT      0.062700
@<TRIPOS>BOND
     1    1    2 1   
     2    2    3 1   
     3    2    4 1   
     4    4    5 1   
     5    4   12 1   
     6    4   13 1   
     7    5    6 1   
     8    5   14 1   
     9    5   15 1   
    10    6    7 1   
    11    6    8 1   
    12    6    9 1   
    13    9   10 1   
    14    9   11 1   
@<TRIPOS>SUBSTRUCTURE
     1 2FT         1 TEMP              0 ****  ****    0 ROOT
