@<TRIPOS>MOLECULE
molecule
   15    14     1     0     0
SMALL
bcc


@<TRIPOS>ATOM
      1 O01          0.0000     0.0000     0.0000 o          1 2FT      -0.876300
      2 C02          1.3420     0.0000     0.0000 c          1 2FT       0.893600
      3 O03          1.9460     0.0000     1.0460 o          1 2FT      -0.876300
      4 C04          2.0960     0.0010    -1.3050 c3         1 2FT      -0.188400
      5 C05          3.6000     0.0000    -1.0240 c3         1 2FT      -0.088400
      6 C06          4.3650     0.0000    -2.3490 c3         1 2FT       0.282600
      7 F07          4.0270    -1.1410    -3.0840 f          1 2FT      -0.272800
      8 F08          4.0270     1.1430    -3.0830 f          1 2FT      -0.272800
      9 C09          5.8470     0.0000    -2.0740 c          1 2FT       0.870600
     10 O10          6.2670    -0.4420    -1.0320 o          1 2FT      -0.835800
     11 O11          6.6990     0.4920    -2.9860 o          1 2FT      -0.835800
     12 H04          1.8340    -0.8830    -1.8730 hc         1 2FT       0.030700
     13 H04A         1.8340     0.8860    -1.8720 hc         1 2FT       0.030700
     14 H05          3.8610    -0.8850    -0.4570 hc         1 2FT       0.068700
     15 H05A         3.8610     0.8840    -0.4560 hc         1 2FT       0.068700
@<TRIPOS>BOND
     1     1     2 1
     2     2     3 1
     3     2     4 1
     4     4     5 1
     5     5     6 1
     6     6     7 1
     7     6     8 1
     8     6     9 1
     9     9    10 1
    10     9    11 1
    11     4    12 1
    12     4    13 1
    13     5    14 1
    14     5    15 1
@<TRIPOS>SUBSTRUCTURE
     1 2FT         1 TEMP              0 ****  ****    0 ROOT
