@<TRIPOS>MOLECULE
2FU
   10     9     1     0     0
SMALL
bcc


@<TRIPOS>ATOM
      1 C1          0.0550    0.2310    0.0920 ce        1 2FU     -0.205200
      2 O3          2.2030    0.2870   -0.9130 o         1 2FU     -0.504100
      3 C2          1.4790   -0.1370   -0.0120 c         1 2FU      0.551100
      4 C7         -2.1540    0.1370    1.1770 c         1 2FU      0.551100
      5 C5         -0.7300   -0.2310    1.0730 cf        1 2FU     -0.205200
      6 O8         -2.8780   -0.2860    2.0800 o         1 2FU     -0.504100
      7 H1         -0.3210    0.9110   -0.6920 ha        1 2FU      0.152000
      8 H2          1.8640   -0.8230    0.7760 h4        1 2FU      0.006200
      9 H7         -2.5390    0.8220    0.3890 h4        1 2FU      0.006200
     10 H5         -0.3540   -0.9110    1.8580 ha        1 2FU      0.152000
@<TRIPOS>BOND
     1    1    3 1   
     2    1    5 2   
     3    1    7 1   
     4    2    3 2   
     5    3    8 1   
     6    4    5 1   
     7    4    6 2   
     8    4    9 1   
     9    5   10 1   
@<TRIPOS>SUBSTRUCTURE
     1 2FU         1 TEMP              0 ****  ****    0 ROOT
