@<TRIPOS>MOLECULE
molecule
   10     9     1     0     0
SMALL
bcc


@<TRIPOS>ATOM
      1 C1           0.0000     0.0000     0.0000 ce         1 2FU      -0.210200
      2 O3           2.0760    -0.0000    -1.0500 o          1 2FU      -0.503600
      3 C2           1.4690     0.0000     0.0000 c          1 2FU       0.556100
      4 C7          -2.1440     0.0000     1.1660 c          1 2FU       0.556100
      5 C5          -0.6750     0.0000     1.1660 cf         1 2FU      -0.210200
      6 O8          -2.7510     0.0000     2.2150 o          1 2FU      -0.503600
      7 H1          -0.5410    -0.0000    -0.9390 ha         1 2FU       0.152000
      8 H2           2.0100     0.0000     0.9390 h4         1 2FU       0.006200
      9 H7          -2.6850     0.0000     0.2270 h4         1 2FU       0.006200
     10 H5          -0.1340     0.0000     2.1040 ha         1 2FU       0.152000
@<TRIPOS>BOND
     1     1     3 1
     2     1     5 2
     3     1     7 1
     4     2     3 2
     5     3     8 1
     6     4     5 1
     7     4     6 2
     8     4     9 1
     9     5    10 1
@<TRIPOS>SUBSTRUCTURE
     1 2FU         1 TEMP              0 ****  ****    0 ROOT
