@<TRIPOS>MOLECULE
molecule
   20    21     1     0     0
SMALL
bcc


@<TRIPOS>ATOM
      1 O1           0.0000     0.0000     0.0000 o          1 2FX      -0.837300
      2 C2           1.3420     0.0000     0.0000 c          1 2FX       0.892600
      3 O3           1.9460     0.0000     1.0460 o          1 2FX      -0.837300
      4 C4           3.5770    -0.0010    -1.0290 cc         1 2FX       0.081400
      5 C5           4.3080    -1.0900    -0.8930 cd         1 2FX      -0.180200
      6 C6           5.7180    -0.8520    -0.6300 ca         1 2FX      -0.048800
      7 C7           6.7610    -1.7830    -0.4360 ca         1 2FX      -0.103000
      8 C8           8.0310    -1.3550    -0.2000 ca         1 2FX      -0.146000
      9 C9           8.3220     0.0010    -0.1460 ca         1 2FX      -0.151000
     10 C10          7.3250     0.9300    -0.3310 ca         1 2FX      -0.093000
     11 C11          6.0140     0.5130    -0.5760 ca         1 2FX      -0.027100
     12 S12          4.5500     1.4480    -0.8560 ss         1 2FX      -0.127500
     13 C13          2.0960    -0.0000    -1.3040 c3         1 2FX      -0.135200
     14 H5           3.8890    -2.0860    -0.9670 ha         1 2FX       0.149000
     15 H7           6.5490    -2.8440    -0.4760 ha         1 2FX       0.122000
     16 H8           8.8230    -2.0800    -0.0530 ha         1 2FX       0.112000
     17 H9           9.3370     0.3290     0.0430 ha         1 2FX       0.113000
     18 H10          7.5570     1.9870    -0.2880 ha         1 2FX       0.120000
     19 H13          1.8340    -0.8850    -1.8720 hc         1 2FX       0.047700
     20 H13A         1.8340     0.8840    -1.8730 hc         1 2FX       0.047700
@<TRIPOS>BOND
     1     2     1 1
     2    13     2 1
     3     3     2 1
     4    12     4 1
     5     5     4 2
     6     4    13 1
     7     6     5 1
     8     5    14 1
     9     7     6 ar
    10    11     6 ar
    11     8     7 ar
    12     7    15 1
    13     9     8 ar
    14     8    16 1
    15     9    10 ar
    16     9    17 1
    17    10    11 ar
    18    10    18 1
    19    11    12 1
    20    13    19 1
    21    13    20 1
@<TRIPOS>SUBSTRUCTURE
     1 2FX         1 TEMP              0 ****  ****    0 ROOT
