@<TRIPOS>MOLECULE
2FX
   20    21     1     0     0
SMALL
bcc


@<TRIPOS>ATOM
      1 O1          1.3220   -1.4130   -0.3900 o         1 2FX     -0.832800
      2 C2          1.2820   -0.1670   -0.1870 c         1 2FX      0.924600
      3 O3          0.4700    0.4120    0.5830 o         1 2FX     -0.832800
      4 C4          3.6710    0.3720   -0.8100 cc        1 2FX      0.032400
      5 C5          4.1920   -0.8870   -0.7040 cd        1 2FX     -0.155200
      6 C6          5.6260   -0.8830   -0.5770 ca        1 2FX     -0.058800
      7 C7          6.4950   -1.9760   -0.4500 ca        1 2FX     -0.099000
      8 C8          7.8580   -1.7510   -0.3410 ca        1 2FX     -0.152000
      9 C9          8.3730   -0.4440   -0.3530 ca        1 2FX     -0.153000
     10 C10         7.5280    0.6490   -0.4750 ca        1 2FX     -0.099000
     11 C11         6.1510    0.4420   -0.5890 ca        1 2FX     -0.075100
     12 S12         4.9040    1.5720   -0.7460 ss        1 2FX     -0.101500
     13 C13         2.2650    0.7420   -0.9760 c3        1 2FX     -0.166200
     14 H5          3.5680   -1.7920   -0.6880 ha        1 2FX      0.204000
     15 H7          6.0840   -2.9950   -0.4370 ha        1 2FX      0.131000
     16 H8          8.5490   -2.6000   -0.2400 ha        1 2FX      0.112000
     17 H9          9.4580   -0.2910   -0.2640 ha        1 2FX      0.111000
     18 H10         7.9340    1.6700   -0.4810 ha        1 2FX      0.120000
     19 H13         1.9850    0.6520   -2.0590 hc        1 2FX      0.045200
     20 H13A        2.0970    1.8040   -0.6580 hc        1 2FX      0.045200
@<TRIPOS>BOND
     1    1    2 1   
     2    2    3 1   
     3    2   13 1   
     4    4    5 2   
     5    4   12 1   
     6    4   13 1   
     7    5    6 1   
     8    5   14 1   
     9    6    7 ar  
    10    6   11 ar  
    11    7    8 ar  
    12    7   15 1   
    13    8    9 ar  
    14    8   16 1   
    15    9   10 ar  
    16    9   17 1   
    17   10   11 ar  
    18   10   18 1   
    19   11   12 1   
    20   13   19 1   
    21   13   20 1   
@<TRIPOS>SUBSTRUCTURE
     1 2FX         1 TEMP              0 ****  ****    0 ROOT
