@<TRIPOS>MOLECULE
molecule
   22    22     1     0     0
SMALL
bcc


@<TRIPOS>ATOM
      1 C5           0.0000     0.0000     0.0000 ca         1 2FY       0.196100
      2 C4           1.3840     0.0000     0.0000 ca         1 2FY      -0.246000
      3 C3           2.0760     0.0000     1.2030 ca         1 2FY       0.164100
      4 C2           1.3850    -0.0000     2.4120 ca         1 2FY      -0.196000
      5 C1           0.0210    -0.0010     2.4280 ca         1 2FY      -0.053000
      6 C7          -4.4070     0.0130     2.2840 c3         1 2FY      -0.081100
      7 O1          -2.7770     0.0110     0.1920 o          1 2FY      -0.504100
      8 O2           3.4330    -0.0000     1.2010 oh         1 2FY      -0.521100
      9 C9          -2.9010     0.0050     2.5490 c3         1 2FY      -0.180400
     10 C10         -0.6950    -0.0000     1.2220 ca         1 2FY      -0.212600
     11 O8          -0.6820     0.0060    -1.1730 oh         1 2FY      -0.469100
     12 H1          -0.5090    -0.0010     3.3720 ha         1 2FY       0.141000
     13 H2           1.9340    -0.0000     3.3450 ha         1 2FY       0.144000
     14 H4           1.9270     0.0000    -0.9380 ha         1 2FY       0.149000
     15 HA           3.7480    -0.8880     1.2310 ho         1 2FY       0.426000
     16 H8          -0.2570    -0.5710    -1.7860 ho         1 2FY       0.422000
     17 H91C        -2.6390    -0.8770     3.1200 hc         1 2FY       0.060700
     18 H92C        -2.6280     0.8920     3.1080 hc         1 2FY       0.060700
     19 H71C        -4.6690     0.8950     1.7120 hc         1 2FY       0.042367
     20 H72C        -4.9400     0.0230     3.2270 hc         1 2FY       0.042367
     21 H73C        -4.6800    -0.8740     1.7250 hc         1 2FY       0.042367
     22 C6          -2.1600     0.0060     1.2370 c          1 2FY       0.572700
@<TRIPOS>BOND
     1     5     4 ar
     2     5    10 ar
     3     4     3 ar
     4     3     2 ar
     5     3     8 1
     6     2     1 ar
     7     1    10 ar
     8     1    11 1
     9    22     7 2
    10    22     9 1
    11    22    10 1
    12     6     9 1
    13     5    12 1
    14     4    13 1
    15     2    14 1
    16     8    15 1
    17    11    16 1
    18     9    17 1
    19     9    18 1
    20     6    19 1
    21     6    20 1
    22     6    21 1
@<TRIPOS>SUBSTRUCTURE
     1 2FY         1 TEMP              0 ****  ****    0 ROOT
