@<TRIPOS>MOLECULE
2FY
   22    21     1     0     0
SMALL
bcc


@<TRIPOS>ATOM
      1 C5         -0.0930   -0.4690   -0.1840 c2        1 2FY     -0.200000
      2 C4          1.2510   -0.5960   -0.2470 c1        1 2FY      0.139000
      3 C3          2.3370    0.4630    1.5890 c2        1 2FY      0.053000
      4 C2          1.3760   -0.2930    2.1710 c2        1 2FY     -0.229000
      5 C1         -0.0320    0.0660    2.1760 c2        1 2FY     -0.091000
      6 C7         -4.4720    0.0250    2.0380 c3        1 2FY     -0.208000
      7 O1         -2.7330    0.7670   -0.0120 o         1 2FY     -0.297000
      8 O2          3.6430    0.0660    1.7230 oh        1 2FY     -0.250000
      9 C9         -2.9820    0.0180    2.2610 c3        1 2FY     -0.203000
     10 C10        -0.7640   -0.0370    1.0460 c2        1 2FY     -0.136000
     11 O8         -0.8520   -0.8460   -1.2800 oh        1 2FY     -0.247000
     12 H1         -0.4640    0.3800    3.1390 ha        1 2FY      0.147000
     13 H2          1.6400   -1.2210    2.7060 ha        1 2FY      0.169000
     14 H4          2.1540    1.4130    1.0600 h4        1 2FY      0.142000
     15 HA          4.1460    0.4740    1.0020 ho        1 2FY      0.230000
     16 H8         -1.4570   -0.1090   -1.4710 ho        1 2FY      0.235000
     17 H91C       -2.6590   -0.9740    2.6750 hc        1 2FY      0.107000
     18 H92C       -2.7050    0.8060    3.0140 hc        1 2FY      0.107000
     19 H71C       -5.0050   -0.1270    3.0060 hc        1 2FY      0.085667
     20 H72C       -4.7960    0.9970    1.5930 hc        1 2FY      0.085667
     21 H73C       -4.7660   -0.7910    1.3340 hc        1 2FY      0.085667
     22 C6         -2.2080    0.2920    1.0020 c2        1 2FY      0.275000
@<TRIPOS>BOND
     1    1    2 1   
     2    1   10 1   
     3    1   11 1   
     4    3    4 1   
     5    3    8 1   
     6    3   14 1   
     7    4    5 1   
     8    4   13 1   
     9    5   10 1   
    10    5   12 1   
    11    6    9 1   
    12    6   19 1   
    13    6   20 1   
    14    6   21 1   
    15    7   22 1   
    16    8   15 1   
    17    9   17 1   
    18    9   18 1   
    19    9   22 1   
    20   10   22 1   
    21   11   16 1   
@<TRIPOS>SUBSTRUCTURE
     1 2FY         1 TEMP              0 ****  ****    0 ROOT
