@<TRIPOS>MOLECULE
2FZ
   64    68     1     0     0
SMALL
bcc


@<TRIPOS>ATOM
      1 C7           0.0000     0.0000     0.0000 ca         1 2FZ      -0.094000
      2 C6          -0.4470    -3.6060    -4.9060 ca         1 2FZ      -0.143500
      3 C1          -1.3790    -1.0020    -4.6530 ca         1 2FZ      -0.031500
      4 C5          -1.9960    -1.8730    -5.5250 ca         1 2FZ      -0.143500
      5 C4           1.3720     0.0050     2.4010 ca         1 2FZ      -0.110000
      6 C3          -0.0070     0.0070     2.4010 ca         1 2FZ      -0.126000
      7 C2           0.1800    -2.7410    -4.0350 ca         1 2FZ      -0.031500
      8 C8          -0.2820    -1.4300    -3.9020 ca         1 2FZ      -0.174600
      9 C9           1.3850     0.0000     0.0000 ca         1 2FZ      -0.172300
     10 C10         -0.6990     0.0030     1.1980 ca         1 2FZ      -0.007400
     11 C11          2.0750     0.0000     1.1990 ca         1 2FZ       0.134100
     12 C12         -1.5320    -3.1740    -5.6540 ca         1 2FZ       0.128900
     13 C14          5.3820    -0.9580    -2.5690 c          1 2FZ       0.670100
     14 C15         -2.6290     0.0060     2.5640 c3         1 2FZ       0.133800
     15 C16         -2.6220     1.1410     0.4250 c3         1 2FZ       0.133800
     16 C17         -4.1570    -0.0750     2.5160 c3         1 2FZ       0.152300
     17 C18         -4.1500     1.0600     0.3780 c3         1 2FZ       0.152300
     18 C19         -6.7710     2.4020     1.3020 cy         1 2FZ       0.204900
     19 C20         -6.7760     1.3550     3.1200 cy         1 2FZ       0.204900
     20 C21          4.1430     0.3590     0.0610 c3         1 2FZ       0.198400
     21 C22          2.1090     0.0070    -1.3220 c3         1 2FZ       0.084000
     22 C23         -6.1510     1.0630     1.7440 cy         1 2FZ       0.032500
     23 C24          3.5610    -0.4320    -1.1170 c3         1 2FZ       0.141100
     24 N26         -2.0980     0.0020     1.1930 nh         1 2FZ      -0.364000
     25 N27         -4.6820     1.0640     1.7470 n3         1 2FZ      -0.534600
     26 N28          1.4460    -0.9150    -2.2470 ns         1 2FZ      -0.180900
     27 N29          6.1370    -0.7560    -3.6670 ns         1 2FZ      -0.165900
     28 O30         -0.0170     0.6410    -2.8560 o          1 2FZ      -0.655100
     29 O31          5.6510    -1.8640    -1.8040 o          1 2FZ      -0.654000
     30 O32          3.4340    -0.0110     1.2440 os         1 2FZ      -0.298900
     31 O33         -7.6900     2.2110     2.3970 oq         1 2FZ      -0.410600
     32 O34          4.3290    -0.1560    -2.3190 os         1 2FZ      -0.413900
     33 F35         -2.1400    -4.0240    -6.5110 f          1 2FZ      -0.125900
     34 H1          -0.5390    -0.0030    -0.9390 ha         1 2FZ       0.146000
     35 H3          -1.7410     0.0140    -4.5540 ha         1 2FZ       0.118500
     36 H4          -2.8450    -1.5410    -6.1100 ha         1 2FZ       0.123500
     37 H5           1.9110     0.0080     3.3410 ha         1 2FZ       0.116000
     38 H6          -0.5490     0.0090     3.3390 ha         1 2FZ       0.123000
     39 H7           1.0290    -3.0790    -3.4530 ha         1 2FZ       0.118500
     40 H8          -2.2400    -0.8490     3.1030 h1         1 2FZ       0.027200
     41 H9          -2.3320     0.9210     3.0630 h1         1 2FZ       0.027200
     42 H10         -2.2280     1.1070    -0.5830 h1         1 2FZ       0.027200
     43 H11         -2.3250     2.0660     0.9040 h1         1 2FZ       0.027200
     44 H12         -4.5510    -0.0400     3.5250 h1         1 2FZ       0.015950
     45 H13         -4.4540    -1.0000     2.0380 h1         1 2FZ       0.015950
     46 H14         -4.5390     1.9150    -0.1620 h1         1 2FZ       0.015950
     47 H15         -4.4470     0.1460    -0.1220 h1         1 2FZ       0.015950
     48 H16         -6.1080     3.2470     1.4450 h1         1 2FZ       0.022700
     49 H17         -7.2480     2.3520     0.3310 h1         1 2FZ       0.022700
     50 H18         -6.1150     1.8990     3.7830 h1         1 2FZ       0.022700
     51 H19         -7.2590     0.4910     3.5610 h1         1 2FZ       0.022700
     52 H20          3.9990     1.4180    -0.1200 h1         1 2FZ       0.030200
     53 H21          5.1870     0.0980     0.1800 h1         1 2FZ       0.030200
     54 H22          2.0930     1.0100    -1.7330 h1         1 2FZ       0.073700
     55 H23         -6.5990     0.2100     1.2500 h1         1 2FZ       0.040700
     56 H24          3.5910    -1.4920    -0.8940 h1         1 2FZ       0.060700
     57 H25          6.9490    -2.6590    -3.9820 h1         1 2FZ       0.012367
     58 H26          8.0150    -1.5190    -3.1480 h1         1 2FZ       0.012367
     59 H27          7.7290    -1.3530    -4.8860 h1         1 2FZ       0.012367
     60 H29          1.7640    -1.8610    -2.3250 hn         1 2FZ       0.184500
     61 H30          5.9260     0.0010    -4.2870 hn         1 2FZ       0.174500
     62 C13          0.3870    -0.5000    -2.9700 c          1 2FZ       0.603700
     63 H2          -0.0880    -4.6230    -5.0100 ha         1 2FZ       0.123500
     64 C25          7.2820    -1.6280    -3.9380 c3         1 2FZ       0.098300
@<TRIPOS>BOND
     1     1     9 ar  
     2     1    10 ar  
     3     1    34 1   
     4     2     7 ar  
     5     2    12 ar  
     6     2    63 1   
     7     3     4 ar  
     8     3     8 ar  
     9     3    35 1   
    10     4    12 ar  
    11     4    36 1   
    12     5     6 ar  
    13     5    11 ar  
    14     5    37 1   
    15     6    10 ar  
    16     6    38 1   
    17     7     8 ar  
    18     7    39 1   
    19     8    62 1   
    20     9    11 ar  
    21     9    21 1   
    22    10    24 1   
    23    11    30 1   
    24    12    33 1   
    25    13    27 1   
    26    13    29 2   
    27    13    32 1   
    28    14    16 1   
    29    14    24 1   
    30    14    40 1   
    31    14    41 1   
    32    15    17 1   
    33    15    24 1   
    34    15    42 1   
    35    15    43 1   
    36    16    25 1   
    37    16    44 1   
    38    16    45 1   
    39    17    25 1   
    40    17    46 1   
    41    17    47 1   
    42    18    22 1   
    43    18    31 1   
    44    18    48 1   
    45    18    49 1   
    46    19    22 1   
    47    19    31 1   
    48    19    50 1   
    49    19    51 1   
    50    20    23 1   
    51    20    30 1   
    52    20    52 1   
    53    20    53 1   
    54    21    23 1   
    55    21    26 1   
    56    21    54 1   
    57    22    25 1   
    58    22    55 1   
    59    23    32 1   
    60    23    56 1   
    61    26    60 1   
    62    26    62 1   
    63    27    61 1   
    64    27    64 1   
    65    28    62 2   
    66    57    64 1   
    67    58    64 1   
    68    59    64 1   
@<TRIPOS>SUBSTRUCTURE
     1 2FZ         1 TEMP              0 ****  ****    0 ROOT
