@<TRIPOS>MOLECULE
2G1
   35    36     1     0     0
SMALL
bcc


@<TRIPOS>ATOM
      1 C01          0.0000     0.0000     0.0000 c3         1 2G1      -0.001400
      2 C02          1.5060     0.0000     0.0000 cc         1 2G1       0.439700
      3 N03          2.2400     0.0000     1.0580 nd         1 2G1      -0.557000
      4 C04          3.5540    -0.0000     0.8830 cd         1 2G1       0.377800
      5 C05          3.9360    -0.0020    -0.4090 cc         1 2G1      -0.110400
      6 S06          2.4820    -0.0090    -1.4030 ss         1 2G1      -0.294300
      7 C07          4.5190    -0.0000     2.0110 ca         1 2G1      -0.069500
      8 C08          5.8890     0.0050     1.7580 ca         1 2G1      -0.116500
      9 C09          6.7820     0.0050     2.8110 ca         1 2G1       0.002500
     10 C10          6.3190     0.0010     4.1140 ca         1 2G1      -0.163500
     11 C11          4.9600    -0.0050     4.3710 ca         1 2G1       0.002500
     12 C12          4.0570    -0.0000     3.3260 ca         1 2G1      -0.116500
     13 S13          7.4650     0.0020     5.4520 sy         1 2G1       1.044200
     14 O14          6.7780    -0.5490     6.5690 o          1 2G1      -0.582300
     15 O15          8.6770    -0.5370     4.9440 o          1 2G1      -0.582300
     16 N16          7.7770     1.5840     5.8290 n7         1 2G1      -0.586100
     17 C17          6.7090     2.4370     6.3550 c3         1 2G1       0.226800
     18 C18          7.3180     3.7020     6.9630 c3         1 2G1      -0.101400
     19 C19          6.2020     4.5920     7.5110 c3         1 2G1       0.573900
     20 F20          5.4920     3.8970     8.4970 f          1 2G1      -0.206300
     21 F21          6.7600     5.7490     8.0680 f          1 2G1      -0.206300
     22 F22          5.3330     4.9460     6.4730 f          1 2G1      -0.206300
     23 H1          -0.3610     0.9330     0.4150 hc         1 2G1       0.020033
     24 H2          -0.3610    -0.8260     0.6010 hc         1 2G1       0.020033
     25 H3          -0.3610    -0.1070    -1.0160 hc         1 2G1       0.020033
     26 H4           4.9570    -0.0030    -0.7720 h4         1 2G1       0.165000
     27 H5           6.2530     0.0080     0.7380 ha         1 2G1       0.122000
     28 H6           7.8480     0.0100     2.6160 ha         1 2G1       0.123500
     29 H7           4.6020    -0.0070     5.3930 ha         1 2G1       0.123500
     30 H8           2.9930    -0.0050     3.5280 ha         1 2G1       0.122000
     31 H9           8.6980     1.9550     5.7050 hn         1 2G1       0.350800
     32 H10          6.0360     2.7100     5.5510 h1         1 2G1       0.029200
     33 H11          6.1590     1.8980     7.1170 h1         1 2G1       0.029200
     34 H12          7.9900     3.4280     7.7670 hc         1 2G1       0.054700
     35 H13          7.8680     4.2400     6.2000 hc         1 2G1       0.054700
@<TRIPOS>BOND
     1     1     2 1   
     2     1    23 1   
     3     1    24 1   
     4     1    25 1   
     5     2     3 2   
     6     2     6 1   
     7     3     4 1   
     8     4     5 2   
     9     4     7 1   
    10     5     6 1   
    11     5    26 1   
    12     7     8 ar  
    13     7    12 ar  
    14     8     9 ar  
    15     8    27 1   
    16     9    10 ar  
    17     9    28 1   
    18    10    11 ar  
    19    10    13 1   
    20    11    12 ar  
    21    11    29 1   
    22    12    30 1   
    23    13    14 2   
    24    13    15 2   
    25    13    16 1   
    26    16    17 1   
    27    16    31 1   
    28    17    18 1   
    29    17    32 1   
    30    17    33 1   
    31    18    19 1   
    32    18    34 1   
    33    18    35 1   
    34    19    20 1   
    35    19    21 1   
    36    19    22 1   
@<TRIPOS>SUBSTRUCTURE
     1 2G1         1 TEMP              0 ****  ****    0 ROOT
