@<TRIPOS>MOLECULE
molecule
   47    46     1     0     0
SMALL
bcc


@<TRIPOS>ATOM
      1 OXT          0.0000     0.0000     0.0000 o          1 2G2      -0.810800
      2 C            1.2090     0.0000     0.0000 c          1 2G2       0.882600
      3 O            1.8800     0.0010    -1.1610 o          1 2G2      -0.810800
      4 CA           1.9600     0.0000     1.3060 c3         1 2G2      -0.021500
      5 N            1.0770     0.4730     2.3810 nz         1 2G2      -0.791600
      6 CB           2.4330    -1.4200     1.6220 c3         1 2G2      -0.071400
      7 CAN          3.3020    -1.4010     2.8810 c3         1 2G2      -0.185400
      8 CAV          3.7670    -2.8000     3.1920 c          1 2G2       0.638100
      9 OAC          3.4360    -3.7230     2.4780 o          1 2G2      -0.651100
     10 NAR          4.5510    -3.0270     4.2650 ns         1 2G2      -0.486900
     11 CBA          5.0030    -4.3870     4.5680 c3         1 2G2      -0.008300
     12 CAX          3.9460    -5.1010     5.3700 c          1 2G2       0.908600
     13 OAJ          4.1440    -6.3690     5.7630 o          1 2G2      -0.835800
     14 OAE          2.9210    -4.5320     5.6590 o          1 2G2      -0.835800
     15 CAQ          6.3010    -4.3250     5.3750 c3         1 2G2       0.210400
     16 OAT          6.0450    -3.7210     6.6440 os         1 2G2      -0.574200
     17 PBC          7.1870    -3.4940     7.7550 p5         1 2G2       1.334700
     18 OAL          6.6110    -2.5650     8.9360 o          1 2G2      -0.866500
     19 OAG          8.3560    -2.8320     7.1330 o          1 2G2      -0.866500
     20 NAS          7.6570    -4.9810     8.3890 n7         1 2G2      -0.931300
     21 CBB          6.5200    -5.6680     9.0170 c3         1 2G2       0.109500
     22 CAY          6.5100    -5.3750    10.4950 c          1 2G2       0.896600
     23 OAK          5.5540    -5.9010    11.2770 o          1 2G2      -0.898300
     24 OAF          7.3620    -4.6670    10.9760 o          1 2G2      -0.898300
     25 CAP          6.6500    -7.1770     8.7960 c3         1 2G2      -0.037400
     26 CAM          6.5350    -7.4850     7.3030 c3         1 2G2      -0.196400
     27 CAU          6.6630    -8.9710     7.0850 c          1 2G2       0.903600
     28 OAH          6.5930    -9.4760     5.8430 o          1 2G2      -0.918800
     29 OAB          6.8300    -9.7070     8.0290 o          1 2G2      -0.918800
     30 H2           2.8180     0.6570     1.2280 hx         1 2G2       0.091700
     31 H3           1.6310     0.8120     3.1420 hn         1 2G2       0.436800
     32 H4           0.5020    -0.2830     2.6970 hn         1 2G2       0.436800
     33 H6           3.0110    -1.8020     0.7900 hc         1 2G2       0.098200
     34 H7           1.5730    -2.0590     1.7870 hc         1 2G2       0.098200
     35 H8           2.7240    -1.0190     3.7140 hc         1 2G2       0.030700
     36 H9           4.1620    -0.7630     2.7170 hc         1 2G2       0.030700
     37 H10          4.8450    -2.2620     4.8390 hn         1 2G2       0.315500
     38 H11          5.1780    -4.9240     3.6430 h1         1 2G2       0.056700
     39 H13          6.6820    -5.3280     5.5230 h1         1 2G2       0.027200
     40 H14          7.0330    -3.7360     4.8360 h1         1 2G2       0.027200
     41 H16          8.5790    -5.0990     8.7600 hn         1 2G2       0.390800
     42 H17          5.5970    -5.3160     8.5730 h1         1 2G2       0.074700
     43 H19          5.8610    -7.6890     9.3330 hc         1 2G2       0.023200
     44 H20          7.6130    -7.5140     9.1620 hc         1 2G2       0.023200
     45 H21          5.5730    -7.1490     6.9370 hc         1 2G2       0.065200
     46 H22          7.3250    -6.9730     6.7660 hc         1 2G2       0.065200
     47 HN3          0.4920     1.2070     2.0330 hn         1 2G2       0.436800
@<TRIPOS>BOND
     1     3     2 1
     2    23    22 1
     3    28    27 1
     4     2     1 1
     5     2     4 1
     6    27    29 1
     7    27    26 1
     8    22    24 1
     9    22    21 1
    10    26    25 1
    11    25    21 1
    12     4     6 1
    13     4     5 1
    14    21    20 1
    15     6     7 1
    16    19    17 1
    17    20    17 1
    18     7     8 1
    19    15    11 1
    20    15    16 1
    21     8     9 2
    22     8    10 1
    23    17    16 1
    24    17    18 1
    25    10    11 1
    26    11    12 1
    27    12    14 1
    28    12    13 1
    29     4    30 1
    30     5    31 1
    31     5    32 1
    32     6    33 1
    33     6    34 1
    34     7    35 1
    35     7    36 1
    36    10    37 1
    37    11    38 1
    38    15    39 1
    39    15    40 1
    40    20    41 1
    41    21    42 1
    42    25    43 1
    43    25    44 1
    44    26    45 1
    45    26    46 1
    46    47     5 1
@<TRIPOS>SUBSTRUCTURE
     1 2G2         1 TEMP              0 ****  ****    0 ROOT
