@<TRIPOS>MOLECULE
2G2
   47    46     1     0     0
SMALL
bcc


@<TRIPOS>ATOM
      1 OXT          0.0000     0.0000     0.0000 o          1 2G2      -0.855300
      2 C            1.2090     0.0000     0.0000 c          1 2G2       0.977600
      3 O            1.8800     0.0010    -1.1610 o          1 2G2      -0.855300
      4 CA           1.9600     0.0000     1.3060 c3         1 2G2      -0.203500
      5 N            1.0770     0.4730     2.3810 nz         1 2G2       0.075400
      6 CB           2.4330    -1.4200     1.6220 c3         1 2G2      -0.007400
      7 CAN          3.3020    -1.4010     2.8810 c3         1 2G2      -0.124400
      8 CAV          3.7670    -2.8000     3.1920 c          1 2G2       0.522100
      9 OAC          3.4360    -3.7230     2.4780 o          1 2G2      -0.703100
     10 NAR          4.5510    -3.0270     4.2650 ns         1 2G2      -0.033900
     11 CBA          5.0030    -4.3870     4.5680 c3         1 2G2      -0.137300
     12 CAX          3.9460    -5.1010     5.3700 c          1 2G2       1.003600
     13 OAJ          4.1440    -6.3690     5.7630 o          1 2G2      -0.890300
     14 OAE          2.9210    -4.5320     5.6590 o          1 2G2      -0.890300
     15 CAQ          6.3010    -4.3250     5.3750 c3         1 2G2       0.274400
     16 OAT          6.0450    -3.7210     6.6440 os         1 2G2      -0.447200
     17 PBC          7.1870    -3.4940     7.7550 p5         1 2G2       0.729700
     18 OAL          6.6110    -2.5650     8.9360 o          1 2G2      -0.690000
     19 OAG          8.3560    -2.8320     7.1330 o          1 2G2      -0.690000
     20 NAS          7.6570    -4.9810     8.3890 n7         1 2G2      -0.567300
     21 CBB          6.5200    -5.6680     9.0170 c3         1 2G2       0.066500
     22 CAY          6.5100    -5.3750    10.4950 c          1 2G2       0.993600
     23 OAK          5.5540    -5.9010    11.2770 o          1 2G2      -0.952300
     24 OAF          7.3620    -4.6670    10.9760 o          1 2G2      -0.952300
     25 CAP          6.6500    -7.1770     8.7960 c3         1 2G2       0.003600
     26 CAM          6.5350    -7.4850     7.3030 c3         1 2G2      -0.184400
     27 CAU          6.6630    -8.9710     7.0850 c          1 2G2       1.005600
     28 OAH          6.5930    -9.4760     5.8430 o          1 2G2      -0.969800
     29 OAB          6.8300    -9.7070     8.0290 o          1 2G2      -0.969800
     30 H2           2.8180     0.6570     1.2280 hx         1 2G2       0.075700
     31 H3           1.6310     0.8120     3.1420 hn         1 2G2       0.210133
     32 H4           0.5020    -0.2830     2.6970 hn         1 2G2       0.210133
     33 H6           3.0110    -1.8020     0.7900 hc         1 2G2       0.067700
     34 H7           1.5730    -2.0590     1.7870 hc         1 2G2       0.067700
     35 H8           2.7240    -1.0190     3.7140 hc         1 2G2       0.000200
     36 H9           4.1620    -0.7630     2.7170 hc         1 2G2       0.000200
     37 H10          4.8450    -2.2620     4.8390 hn         1 2G2       0.164500
     38 H11          5.1780    -4.9240     3.6430 h1         1 2G2       0.037700
     39 H13          6.6820    -5.3280     5.5230 h1         1 2G2      -0.011800
     40 H14          7.0330    -3.7360     4.8360 h1         1 2G2      -0.011800
     41 H16          8.5790    -5.0990     8.7600 hn         1 2G2       0.281800
     42 H17          5.5970    -5.3160     8.5730 h1         1 2G2       0.058700
     43 H19          5.8610    -7.6890     9.3330 hc         1 2G2       0.000700
     44 H20          7.6130    -7.5140     9.1620 hc         1 2G2       0.000700
     45 H21          5.5730    -7.1490     6.9370 hc         1 2G2       0.054700
     46 H22          7.3250    -6.9730     6.7660 hc         1 2G2       0.054700
     47 HN3          0.4920     1.2070     2.0330 hn         1 2G2       0.210133
@<TRIPOS>BOND
     1     1     2 1   
     2     2     3 1   
     3     2     4 1   
     4     4     5 1   
     5     4     6 1   
     6     4    30 1   
     7     5    31 1   
     8     5    32 1   
     9     5    47 1   
    10     6     7 1   
    11     6    33 1   
    12     6    34 1   
    13     7     8 1   
    14     7    35 1   
    15     7    36 1   
    16     8     9 2   
    17     8    10 1   
    18    10    11 1   
    19    10    37 1   
    20    11    12 1   
    21    11    15 1   
    22    11    38 1   
    23    12    13 1   
    24    12    14 1   
    25    15    16 1   
    26    15    39 1   
    27    15    40 1   
    28    16    17 1   
    29    17    18 1   
    30    17    19 1   
    31    17    20 1   
    32    20    21 1   
    33    20    41 1   
    34    21    22 1   
    35    21    25 1   
    36    21    42 1   
    37    22    23 1   
    38    22    24 1   
    39    25    26 1   
    40    25    43 1   
    41    25    44 1   
    42    26    27 1   
    43    26    45 1   
    44    26    46 1   
    45    27    28 1   
    46    27    29 1   
@<TRIPOS>SUBSTRUCTURE
     1 2G2         1 TEMP              0 ****  ****    0 ROOT
