@<TRIPOS>MOLECULE
molecule
   23    22     1     0     0
SMALL
bcc


@<TRIPOS>ATOM
      1 N24          0.0000     0.0000     0.0000 nz         1 2G3      -0.811600
      2 C25          1.4690     0.0000     0.0000 c3         1 2G3       0.086800
      3 C26          1.9790     0.0000     1.4430 c3         1 2G3      -0.100400
      4 C27          3.5080     0.0010     1.4430 c3         1 2G3      -0.066000
      5 C28          4.0200    -1.2480     0.7210 c3         1 2G3      -0.090100
      6 C30          4.0180     1.2510     0.7220 c3         1 2G3      -0.090100
      7 C29          4.0180     0.0010     2.8860 c3         1 2G3      -0.090100
      8 H12         -0.3340    -0.0000    -0.9440 hn         1 2G3       0.455800
      9 H13          1.8300     0.8850    -0.5110 hx         1 2G3       0.115700
     10 H14          1.8300    -0.8850    -0.5110 hx         1 2G3       0.115700
     11 H15          1.6180    -0.8850     1.9530 hc         1 2G3       0.064700
     12 H16          1.6170     0.8840     1.9540 hc         1 2G3       0.064700
     13 H17          3.4420    -2.1080     1.0350 hc         1 2G3       0.047922
     14 H18          5.0640    -1.4040     0.9660 hc         1 2G3       0.047922
     15 H19          3.9160    -1.1140    -0.3490 hc         1 2G3       0.047922
     16 H20          3.9150     1.1180    -0.3480 hc         1 2G3       0.047922
     17 H21          5.0610     1.4090     0.9670 hc         1 2G3       0.047922
     18 H22          3.4380     2.1110     1.0360 hc         1 2G3       0.047922
     19 H23          3.6580    -0.8830     3.3960 hc         1 2G3       0.047922
     20 H24          5.1020     0.0020     2.8860 hc         1 2G3       0.047922
     21 H25          3.6560     0.8860     3.3970 hc         1 2G3       0.047922
     22 H2          -0.3340    -0.8170     0.4720 hn         1 2G3       0.455800
     23 H243        -0.3340     0.8170     0.4710 hn         1 2G3       0.455800
@<TRIPOS>BOND
     1     7     4 1
     2     3     4 1
     3     3     2 1
     4     4     6 1
     5     4     5 1
     6     1     2 1
     7     1     8 1
     8     2     9 1
     9     2    10 1
    10     3    11 1
    11     3    12 1
    12     5    13 1
    13     5    14 1
    14     5    15 1
    15     6    16 1
    16     6    17 1
    17     6    18 1
    18     7    19 1
    19     7    20 1
    20     7    21 1
    21     1    22 1
    22    23     1 1
@<TRIPOS>SUBSTRUCTURE
     1 2G3         1 TEMP              0 ****  ****    0 ROOT
