@<TRIPOS>MOLECULE
molecule
   43    43     1     0     0
SMALL
bcc


@<TRIPOS>ATOM
      1 CAJ          0.0000     0.0000     0.0000 ca         1 2G4      -0.123000
      2 CAH          1.3820     0.0000     0.0000 ca         1 2G4      -0.136500
      3 CAG          2.0730     0.0000     1.1970 ca         1 2G4      -0.158000
      4 CAI          1.3830    -0.0010     2.3940 ca         1 2G4      -0.136500
      5 CAK         -0.0000    -0.0010     2.3950 ca         1 2G4      -0.123000
      6 CAV         -0.6910     0.0060     1.1980 ca         1 2G4      -0.054300
      7 CAP         -2.1980     0.0060     1.1980 c3         1 2G4      -0.043100
      8 CAM         -2.7080     1.4480     1.2060 c3         1 2G4      -0.081400
      9 CAL         -4.2380     1.4480     1.2060 c3         1 2G4      -0.086400
     10 CAN         -4.7480     2.8910     1.2130 c3         1 2G4       0.208400
     11 OAS         -6.1770     2.8900     1.2140 os         1 2G4      -0.579200
     12 PAX         -7.0540     4.2400     1.2210 p5         1 2G4       1.309700
     13 OAF         -8.6000     3.8780     0.9550 o          1 2G4      -0.841500
     14 OAC         -6.5710     5.1480     0.1570 o          1 2G4      -0.841500
     15 N           -6.9040     4.9990     2.7160 n7         1 2G4      -0.932300
     16 CA          -7.3760     4.1250     3.7990 c3         1 2G4       0.108500
     17 C           -8.8140     4.4460     4.1130 c          1 2G4       0.893600
     18 OXT         -9.4580     3.7680     5.0760 o          1 2G4      -0.880300
     19 O           -9.3880     5.3130     3.4980 o          1 2G4      -0.880300
     20 CB          -6.5180     4.3510     5.0460 c3         1 2G4      -0.045400
     21 CG          -5.0820     3.9070     4.7640 c3         1 2G4      -0.176400
     22 CD          -4.2380     4.1300     5.9930 c          1 2G4       0.891600
     23 OE2         -4.7340     4.5950     6.9910 o          1 2G4      -0.897300
     24 OE1         -2.9340     3.8100     5.9790 o          1 2G4      -0.897300
     25 H1          -0.5420     0.0030    -0.9380 ha         1 2G4       0.140500
     26 H2           1.9240    -0.0020    -0.9380 ha         1 2G4       0.112500
     27 H3           3.1570    -0.0000     1.1970 ha         1 2G4       0.104000
     28 H4           1.9250    -0.0040     3.3320 ha         1 2G4       0.112500
     29 H5          -0.5420     0.0010     3.3330 ha         1 2G4       0.140500
     30 H6          -2.5590    -0.5100     2.0790 hc         1 2G4       0.044200
     31 H7          -2.5590    -0.5000     0.3100 hc         1 2G4       0.044200
     32 H8          -2.3470     1.9540     2.0930 hc         1 2G4       0.049700
     33 H9          -2.3470     1.9630     0.3240 hc         1 2G4       0.049700
     34 H10         -4.5990     0.9320     2.0880 hc         1 2G4       0.039200
     35 H11         -4.5990     0.9420     0.3190 hc         1 2G4       0.039200
     36 H12         -4.3870     3.4060     0.3310 h1         1 2G4       0.026200
     37 H13         -4.3860     3.3970     2.1000 h1         1 2G4       0.026200
     38 H15         -7.0190     5.9910     2.7870 hn         1 2G4       0.404800
     39 H16         -7.2960     3.0900     3.4890 h1         1 2G4       0.041700
     40 H18         -6.5270     5.4030     5.3050 hc         1 2G4       0.037700
     41 H19         -6.9200     3.7730     5.8700 hc         1 2G4       0.037700
     42 H20         -5.0730     2.8550     4.5060 hc         1 2G4       0.025200
     43 H21         -4.6800     4.4840     3.9400 hc         1 2G4       0.025200
@<TRIPOS>BOND
     1    19    17 1
     2    23    22 1
     3    22    24 1
     4    22    21 1
     5    17    18 1
     6    17    16 1
     7    21    20 1
     8    20    16 1
     9    16    15 1
    10     7     8 1
    11     7     6 1
    12     8     9 1
    13    14    12 1
    14    15    12 1
    15     6     5 ar
    16     6     1 ar
    17    10     9 1
    18    10    11 1
    19     5     4 ar
    20    12    11 1
    21    12    13 1
    22     1     2 ar
    23     4     3 ar
    24     2     3 ar
    25     1    25 1
    26     2    26 1
    27     3    27 1
    28     4    28 1
    29     5    29 1
    30     7    30 1
    31     7    31 1
    32     8    32 1
    33     8    33 1
    34     9    34 1
    35     9    35 1
    36    10    36 1
    37    10    37 1
    38    15    38 1
    39    16    39 1
    40    20    40 1
    41    20    41 1
    42    21    42 1
    43    21    43 1
@<TRIPOS>SUBSTRUCTURE
     1 2G4         1 TEMP              0 ****  ****    0 ROOT
