@<TRIPOS>MOLECULE
2G4
   43    43     1     0     0
SMALL
bcc


@<TRIPOS>ATOM
      1 CAJ          0.0000     0.0000     0.0000 ca         1 2G4      -0.095500
      2 CAH          1.3820     0.0000     0.0000 ca         1 2G4      -0.112500
      3 CAG          2.0730     0.0000     1.1970 ca         1 2G4      -0.138000
      4 CAI          1.3830    -0.0010     2.3940 ca         1 2G4      -0.112500
      5 CAK         -0.0000    -0.0010     2.3950 ca         1 2G4      -0.095500
      6 CAV         -0.6910     0.0060     1.1980 ca         1 2G4      -0.055300
      7 CAP         -2.1980     0.0060     1.1980 c3         1 2G4       0.018900
      8 CAM         -2.7080     1.4480     1.2060 c3         1 2G4      -0.029400
      9 CAL         -4.2380     1.4480     1.2060 c3         1 2G4      -0.050400
     10 CAN         -4.7480     2.8910     1.2130 c3         1 2G4       0.270400
     11 OAS         -6.1770     2.8900     1.2140 os         1 2G4      -0.461200
     12 PAX         -7.0540     4.2400     1.2210 p5         1 2G4       0.718700
     13 OAF         -8.6000     3.8780     0.9550 o          1 2G4      -0.663000
     14 OAC         -6.5710     5.1480     0.1570 o          1 2G4      -0.663000
     15 N           -6.9040     4.9990     2.7160 n7         1 2G4      -0.578300
     16 CA          -7.3760     4.1250     3.7990 c3         1 2G4       0.068500
     17 C           -8.8140     4.4460     4.1130 c          1 2G4       0.987600
     18 OXT         -9.4580     3.7680     5.0760 o          1 2G4      -0.934800
     19 O           -9.3880     5.3130     3.4980 o          1 2G4      -0.934800
     20 CB          -6.5180     4.3510     5.0460 c3         1 2G4      -0.008400
     21 CG          -5.0820     3.9070     4.7640 c3         1 2G4      -0.136400
     22 CD          -4.2380     4.1300     5.9930 c          1 2G4       0.987600
     23 OE2         -4.7340     4.5950     6.9910 o          1 2G4      -0.947800
     24 OE1         -2.9340     3.8100     5.9790 o          1 2G4      -0.947800
     25 H1          -0.5420     0.0030    -0.9380 ha         1 2G4       0.115000
     26 H2           1.9240    -0.0020    -0.9380 ha         1 2G4       0.088500
     27 H3           3.1570    -0.0000     1.1970 ha         1 2G4       0.082000
     28 H4           1.9250    -0.0040     3.3320 ha         1 2G4       0.088500
     29 H5          -0.5420     0.0010     3.3330 ha         1 2G4       0.115000
     30 H6          -2.5590    -0.5100     2.0790 hc         1 2G4       0.013700
     31 H7          -2.5590    -0.5000     0.3100 hc         1 2G4       0.013700
     32 H8          -2.3470     1.9540     2.0930 hc         1 2G4       0.021200
     33 H9          -2.3470     1.9630     0.3240 hc         1 2G4       0.021200
     34 H10         -4.5990     0.9320     2.0880 hc         1 2G4       0.007700
     35 H11         -4.5990     0.9420     0.3190 hc         1 2G4       0.007700
     36 H12         -4.3870     3.4060     0.3310 h1         1 2G4      -0.014300
     37 H13         -4.3860     3.3970     2.1000 h1         1 2G4      -0.014300
     38 H15         -7.0190     5.9910     2.7870 hn         1 2G4       0.295800
     39 H16         -7.2960     3.0900     3.4890 h1         1 2G4       0.026700
     40 H18         -6.5270     5.4030     5.3050 hc         1 2G4       0.013700
     41 H19         -6.9200     3.7730     5.8700 hc         1 2G4       0.013700
     42 H20         -5.0730     2.8550     4.5060 hc         1 2G4       0.008200
     43 H21         -4.6800     4.4840     3.9400 hc         1 2G4       0.008200
@<TRIPOS>BOND
     1     1     2 ar  
     2     1     6 ar  
     3     1    25 1   
     4     2     3 ar  
     5     2    26 1   
     6     3     4 ar  
     7     3    27 1   
     8     4     5 ar  
     9     4    28 1   
    10     5     6 ar  
    11     5    29 1   
    12     6     7 1   
    13     7     8 1   
    14     7    30 1   
    15     7    31 1   
    16     8     9 1   
    17     8    32 1   
    18     8    33 1   
    19     9    10 1   
    20     9    34 1   
    21     9    35 1   
    22    10    11 1   
    23    10    36 1   
    24    10    37 1   
    25    11    12 1   
    26    12    13 1   
    27    12    14 1   
    28    12    15 1   
    29    15    16 1   
    30    15    38 1   
    31    16    17 1   
    32    16    20 1   
    33    16    39 1   
    34    17    18 1   
    35    17    19 1   
    36    20    21 1   
    37    20    40 1   
    38    20    41 1   
    39    21    22 1   
    40    21    42 1   
    41    21    43 1   
    42    22    23 1   
    43    22    24 1   
@<TRIPOS>SUBSTRUCTURE
     1 2G4         1 TEMP              0 ****  ****    0 ROOT
