@<TRIPOS>MOLECULE
molecule
   43    43     1     0     0
SMALL
bcc


@<TRIPOS>ATOM
      1 CAM          0.0000     0.0000     0.0000 ca         1 2G5      -0.094500
      2 CAK          1.3800     0.0000     0.0000 ca         1 2G5      -0.158500
      3 CAJ          2.0750     0.0000     1.1960 ca         1 2G5      -0.163000
      4 CAL          1.3920    -0.0010     2.4000 ca         1 2G5      -0.158500
      5 CAN          0.0130    -0.0000     2.4140 ca         1 2G5      -0.094500
      6 CAY         -0.6940    -0.0000     1.2110 ca         1 2G5      -0.087600
      7 CAX         -2.1720     0.0050     1.2190 c          1 2G5       0.634700
      8 OAD         -2.7860     0.0100     0.1690 o          1 2G5      -0.661100
      9 NAR         -2.8400     0.0050     2.3900 ns         1 2G5      -0.478900
     10 CBA         -4.3050     0.0110     2.3990 c3         1 2G5      -0.008300
     11 CAW         -4.8030     1.4280     2.2800 c          1 2G5       0.906600
     12 OAH         -6.1220     1.6770     2.2670 o          1 2G5      -0.831300
     13 OAC         -4.0160     2.3400     2.1980 o          1 2G5      -0.831300
     14 CAQ         -4.8100    -0.6010     3.7060 c3         1 2G5       0.210400
     15 OAT         -4.4240     0.2320     4.8010 os         1 2G5      -0.572200
     16 PBB         -4.7880    -0.1070     6.3320 p5         1 2G5       1.333700
     17 OAI         -3.9820     0.8880     7.3090 o          1 2G5      -0.865500
     18 OAE         -4.4090    -1.5060     6.6310 o          1 2G5      -0.865500
     19 N           -6.4420     0.0900     6.5720 n7         1 2G5      -0.931300
     20 CA          -6.8550     1.4700     6.2840 c3         1 2G5       0.109500
     21 C           -6.8750     2.2660     7.5640 c          1 2G5       0.896600
     22 O           -6.5770     1.7370     8.6090 o          1 2G5      -0.898300
     23 OXT         -7.2260     3.5610     7.5430 o          1 2G5      -0.898300
     24 CB          -8.2540     1.4650     5.6640 c3         1 2G5      -0.037400
     25 CG          -8.2070     0.7640     4.3050 c3         1 2G5      -0.196400
     26 CD          -9.5840     0.7590     3.6940 c          1 2G5       0.904600
     27 OE2         -9.7840     0.1930     2.4940 o          1 2G5      -0.919800
     28 OE1        -10.5090     1.2640     4.2850 o          1 2G5      -0.919800
     29 H1          -0.5430     0.0000    -0.9370 ha         1 2G5       0.157500
     30 H2           1.9210     0.0000    -0.9390 ha         1 2G5       0.103000
     31 H3           3.1580    -0.0000     1.1910 ha         1 2G5       0.089000
     32 H4           1.9430    -0.0010     3.3330 ha         1 2G5       0.103000
     33 H5          -0.5200    -0.0000     3.3570 ha         1 2G5       0.157500
     34 H6          -2.3350    -0.0090     3.2540 hn         1 2G5       0.318500
     35 H7          -4.6730    -0.5720     1.5630 h1         1 2G5       0.053700
     36 H9          -4.3810    -1.5870     3.8330 h1         1 2G5       0.026200
     37 H10         -5.8900    -0.6790     3.6760 h1         1 2G5       0.026200
     38 H12         -6.9100    -0.4350     7.2840 hn         1 2G5       0.389800
     39 H13         -6.1550     1.9190     5.5910 h1         1 2G5       0.076700
     40 H15         -8.9370     0.9380     6.3190 hc         1 2G5       0.022200
     41 H16         -8.5940     2.4850     5.5330 hc         1 2G5       0.022200
     42 H17         -7.5240     1.2920     3.6500 hc         1 2G5       0.066200
     43 H18         -7.8660    -0.2560     4.4360 hc         1 2G5       0.066200
@<TRIPOS>BOND
     1    22    21 1
     2    28    26 1
     3    26    27 1
     4    26    25 1
     5    21    23 1
     6    21    20 1
     7    25    24 1
     8    24    20 1
     9    20    19 1
    10     2     3 ar
    11     2     1 ar
    12     3     4 ar
    13     1     6 ar
    14    18    16 1
    15    19    16 1
    16     4     5 ar
    17     6     5 ar
    18     6     7 1
    19    14    10 1
    20    14    15 1
    21     9     7 1
    22     9    10 1
    23    16    15 1
    24    16    17 1
    25     7     8 2
    26    10    11 1
    27    11    13 1
    28    11    12 1
    29     1    29 1
    30     2    30 1
    31     3    31 1
    32     4    32 1
    33     5    33 1
    34     9    34 1
    35    10    35 1
    36    14    36 1
    37    14    37 1
    38    19    38 1
    39    20    39 1
    40    24    40 1
    41    24    41 1
    42    25    42 1
    43    25    43 1
@<TRIPOS>SUBSTRUCTURE
     1 2G5         1 TEMP              0 ****  ****    0 ROOT
