@<TRIPOS>MOLECULE
2G5
   43    43     1     0     0
SMALL
bcc


@<TRIPOS>ATOM
      1 CAM          0.0000     0.0000     0.0000 ca         1 2G5      -0.074500
      2 CAK          1.3800     0.0000     0.0000 ca         1 2G5      -0.135500
      3 CAJ          2.0750     0.0000     1.1960 ca         1 2G5      -0.150000
      4 CAL          1.3920    -0.0010     2.4000 ca         1 2G5      -0.135500
      5 CAN          0.0130    -0.0000     2.4140 ca         1 2G5      -0.074500
      6 CAY         -0.6940    -0.0000     1.2110 ca         1 2G5      -0.080600
      7 CAX         -2.1720     0.0050     1.2190 c          1 2G5       0.524700
      8 OAD         -2.7860     0.0100     0.1690 o          1 2G5      -0.717100
      9 NAR         -2.8400     0.0050     2.3900 ns         1 2G5      -0.023900
     10 CBA         -4.3050     0.0110     2.3990 c3         1 2G5      -0.139300
     11 CAW         -4.8030     1.4280     2.2800 c          1 2G5       1.001600
     12 OAH         -6.1220     1.6770     2.2670 o          1 2G5      -0.885300
     13 OAC         -4.0160     2.3400     2.1980 o          1 2G5      -0.885300
     14 CAQ         -4.8100    -0.6010     3.7060 c3         1 2G5       0.273400
     15 OAT         -4.4240     0.2320     4.8010 os         1 2G5      -0.445200
     16 PBB         -4.7880    -0.1070     6.3320 p5         1 2G5       0.728700
     17 OAI         -3.9820     0.8880     7.3090 o          1 2G5      -0.688500
     18 OAE         -4.4090    -1.5060     6.6310 o          1 2G5      -0.688500
     19 N           -6.4420     0.0900     6.5720 n7         1 2G5      -0.568300
     20 CA          -6.8550     1.4700     6.2840 c3         1 2G5       0.066500
     21 C           -6.8750     2.2660     7.5640 c          1 2G5       0.993600
     22 O           -6.5770     1.7370     8.6090 o          1 2G5      -0.952300
     23 OXT         -7.2260     3.5610     7.5430 o          1 2G5      -0.952300
     24 CB          -8.2540     1.4650     5.6640 c3         1 2G5       0.003600
     25 CG          -8.2070     0.7640     4.3050 c3         1 2G5      -0.185400
     26 CD          -9.5840     0.7590     3.6940 c          1 2G5       1.006600
     27 OE2         -9.7840     0.1930     2.4940 o          1 2G5      -0.970800
     28 OE1        -10.5090     1.2640     4.2850 o          1 2G5      -0.970800
     29 H1          -0.5430     0.0000    -0.9370 ha         1 2G5       0.131000
     30 H2           1.9210     0.0000    -0.9390 ha         1 2G5       0.080000
     31 H3           3.1580    -0.0000     1.1910 ha         1 2G5       0.069000
     32 H4           1.9430    -0.0010     3.3330 ha         1 2G5       0.080000
     33 H5          -0.5200    -0.0000     3.3570 ha         1 2G5       0.131000
     34 H6          -2.3350    -0.0090     3.2540 hn         1 2G5       0.171500
     35 H7          -4.6730    -0.5720     1.5630 h1         1 2G5       0.035700
     36 H9          -4.3810    -1.5870     3.8330 h1         1 2G5      -0.012800
     37 H10         -5.8900    -0.6790     3.6760 h1         1 2G5      -0.012800
     38 H12         -6.9100    -0.4350     7.2840 hn         1 2G5       0.280800
     39 H13         -6.1550     1.9190     5.5910 h1         1 2G5       0.060700
     40 H15         -8.9370     0.9380     6.3190 hc         1 2G5       0.000200
     41 H16         -8.5940     2.4850     5.5330 hc         1 2G5       0.000200
     42 H17         -7.5240     1.2920     3.6500 hc         1 2G5       0.055700
     43 H18         -7.8660    -0.2560     4.4360 hc         1 2G5       0.055700
@<TRIPOS>BOND
     1     1     2 ar  
     2     1     6 ar  
     3     1    29 1   
     4     2     3 ar  
     5     2    30 1   
     6     3     4 ar  
     7     3    31 1   
     8     4     5 ar  
     9     4    32 1   
    10     5     6 ar  
    11     5    33 1   
    12     6     7 1   
    13     7     8 2   
    14     7     9 1   
    15     9    10 1   
    16     9    34 1   
    17    10    11 1   
    18    10    14 1   
    19    10    35 1   
    20    11    12 1   
    21    11    13 1   
    22    14    15 1   
    23    14    36 1   
    24    14    37 1   
    25    15    16 1   
    26    16    17 1   
    27    16    18 1   
    28    16    19 1   
    29    19    20 1   
    30    19    38 1   
    31    20    21 1   
    32    20    24 1   
    33    20    39 1   
    34    21    22 1   
    35    21    23 1   
    36    24    25 1   
    37    24    40 1   
    38    24    41 1   
    39    25    26 1   
    40    25    42 1   
    41    25    43 1   
    42    26    27 1   
    43    26    28 1   
@<TRIPOS>SUBSTRUCTURE
     1 2G5         1 TEMP              0 ****  ****    0 ROOT
