@<TRIPOS>MOLECULE
molecule
   59    59     1     0     0
SMALL
bcc


@<TRIPOS>ATOM
      1 C7           0.0000     0.0000     0.0000 c3         1 2G7       0.215700
      2 C6           1.5070     0.0000     0.0000 ca         1 2G7      -0.084300
      3 C1           2.1980     0.0000     1.1970 ca         1 2G7      -0.103000
      4 C2           3.5810    -0.0010     1.1960 ca         1 2G7      -0.139500
      5 C3           4.2710    -0.0010    -0.0010 ca         1 2G7      -0.131000
      6 C4           3.5790    -0.0010    -1.1970 ca         1 2G7      -0.139500
      7 C5           2.1970    -0.0070    -1.1970 ca         1 2G7      -0.103000
      8 C9          -1.8200    -1.5450     0.0090 c          1 2G7       0.746100
      9 O10         -2.5590    -0.5810     0.0040 o          1 2G7      -0.609000
     10 O8          -0.4840    -1.3690     0.0070 os         1 2G7      -0.448900
     11 N11         -2.3350    -2.7900     0.0150 ns         1 2G7      -0.521900
     12 C12         -3.7870    -2.9820     0.0160 c3         1 2G7      -0.062200
     13 P13         -4.3700    -3.2180    -1.6950 p5         1 2G7       1.113500
     14 O14         -4.0310    -2.0250    -2.5010 o          1 2G7      -0.808500
     15 O15         -3.6590    -4.5150    -2.3300 o          1 2G7      -0.808500
     16 N16         -6.0390    -3.4380    -1.6930 n7         1 2G7      -0.906300
     17 C17         -6.5610    -3.5180    -3.0640 c3         1 2G7       0.170500
     18 C22         -7.9220    -2.8740    -3.1220 c          1 2G7       0.659100
     19 O23         -8.5190    -2.6240    -2.0970 o          1 2G7      -0.616100
     20 C18         -6.6730    -4.9860    -3.4810 c3         1 2G7      -0.109400
     21 C19         -7.0790    -5.0670    -4.9540 c3         1 2G7      -0.092700
     22 C20         -5.9440    -4.5280    -5.8270 c3         1 2G7      -0.089600
     23 C21         -7.3590    -6.5250    -5.3270 c3         1 2G7      -0.089600
     24 C28        -10.4290    -2.9990    -6.4820 c3         1 2G7      -0.086600
     25 C26        -10.1530    -1.6430    -5.8300 c3         1 2G7      -0.096700
     26 C29        -11.4150    -0.7810    -5.8920 c3         1 2G7      -0.086600
     27 C25         -9.7490    -1.8520    -4.3700 c3         1 2G7       0.115000
     28 N24         -8.4760    -2.5760    -4.3140 ns         1 2G7      -0.603900
     29 H25         -0.3610     0.5150     0.8820 h1         1 2G7       0.054200
     30 H26         -0.3610     0.5060    -0.8870 h1         1 2G7       0.054200
     31 H27          1.6560     0.0000     2.1350 ha         1 2G7       0.138000
     32 H28          4.1230    -0.0010     2.1340 ha         1 2G7       0.123000
     33 H29          5.3550     0.0010    -0.0020 ha         1 2G7       0.119000
     34 H30          4.1210    -0.0040    -2.1360 ha         1 2G7       0.123000
     35 H31          1.6550    -0.0070    -2.1350 ha         1 2G7       0.138000
     36 H32         -1.7250    -3.5840     0.0230 hn         1 2G7       0.321500
     37 H23         -4.0360    -3.8560     0.6060 h1         1 2G7       0.055200
     38 H24         -4.2670    -2.1100     0.4440 h1         1 2G7       0.055200
     39 H1          -6.4740    -3.9640    -0.9610 hn         1 2G7       0.392800
     40 H2          -5.8870    -3.0020    -3.7370 h1         1 2G7       0.108700
     41 H3          -5.7170    -5.4760    -3.3430 hc         1 2G7       0.067700
     42 H4          -7.4220    -5.4790    -2.8730 hc         1 2G7       0.067700
     43 H5          -7.9720    -4.4750    -5.1160 hc         1 2G7       0.041700
     44 H6          -5.0140    -5.0040    -5.5450 hc         1 2G7       0.032533
     45 H7          -5.8590    -3.4570    -5.6870 hc         1 2G7       0.032533
     46 H8          -6.1570    -4.7400    -6.8680 hc         1 2G7       0.032533
     47 H9          -6.4700    -7.1190    -5.1560 hc         1 2G7       0.032533
     48 H10         -8.1700    -6.9040    -4.7170 hc         1 2G7       0.032533
     49 H11         -7.6370    -6.5830    -6.3730 hc         1 2G7       0.032533
     50 H19         -9.5290    -3.3560    -6.9680 hc         1 2G7       0.033033
     51 H20        -10.7360    -3.7090    -5.7230 hc         1 2G7       0.033033
     52 H21        -11.2180    -2.8930    -7.2170 hc         1 2G7       0.033033
     53 H15         -9.3410    -1.1290    -6.3300 hc         1 2G7       0.053700
     54 H16        -11.2270     0.1690    -5.4080 hc         1 2G7       0.033033
     55 H17        -12.2250    -1.2910    -5.3840 hc         1 2G7       0.033033
     56 H18        -11.6870    -0.6120    -6.9260 hc         1 2G7       0.033033
     57 H13         -9.6380    -0.8900    -3.8850 h1         1 2G7       0.045700
     58 H14        -10.5140    -2.4260    -3.8620 h1         1 2G7       0.045700
     59 H12         -7.9880    -2.7940    -5.1600 hn         1 2G7       0.318500
@<TRIPOS>BOND
     1     4     3 ar
     2     4     5 ar
     3     3     2 ar
     4     5     6 ar
     5     2     1 1
     6     2     7 ar
     7     6     7 ar
     8     1    10 1
     9    10     8 1
    10     8     9 2
    11     8    11 1
    12    11    12 1
    13    12    13 1
    14    14    13 1
    15    15    13 1
    16    13    16 1
    17    16    17 1
    18    27    28 1
    19    27    25 1
    20    28    18 1
    21    19    18 2
    22    18    17 1
    23    17    20 1
    24    26    25 1
    25    25    24 1
    26    20    21 1
    27    22    21 1
    28    21    23 1
    29    16    39 1
    30    17    40 1
    31    20    41 1
    32    20    42 1
    33    21    43 1
    34    22    44 1
    35    22    45 1
    36    22    46 1
    37    23    47 1
    38    23    48 1
    39    23    49 1
    40    28    59 1
    41    27    57 1
    42    27    58 1
    43    25    53 1
    44    26    54 1
    45    26    55 1
    46    26    56 1
    47    24    50 1
    48    24    51 1
    49    24    52 1
    50    12    37 1
    51    12    38 1
    52     1    29 1
    53     1    30 1
    54     3    31 1
    55     4    32 1
    56     5    33 1
    57     6    34 1
    58     7    35 1
    59    11    36 1
@<TRIPOS>SUBSTRUCTURE
     1 2G7         1 TEMP              0 ****  ****    0 ROOT
