@<TRIPOS>MOLECULE
molecule
   25    26     1     0     0
SMALL
bcc


@<TRIPOS>ATOM
      1 C14          0.0000     0.0000     0.0000 c3         1 2GA      -0.042800
      2 C10          1.5070     0.0000     0.0000 cc         1 2GA       0.007400
      3 N4           2.3100     0.0000     1.0970 na         1 2GA      -0.035600
      4 N8           3.6400     0.0000     0.6560 nc         1 2GA      -0.508800
      5 C9           3.6400     0.0000    -0.6530 cd         1 2GA       0.395600
      6 C13          4.8630     0.0010    -1.5340 c3         1 2GA      -0.117400
      7 C1           2.3100    -0.0060    -1.0950 cd         1 2GA      -0.243400
      8 S11          1.7740    -0.0150    -2.7740 ss         1 2GA      -0.165200
      9 C2           1.6530     1.6990    -3.1610 cc         1 2GA       0.513700
     10 S3           1.1580     2.3630    -4.7140 ss         1 2GA      -0.278800
     11 N5           1.9100     2.6740    -2.3440 nd         1 2GA      -0.336000
     12 N7           1.7490     3.9410    -2.8590 nd         1 2GA      -0.354000
     13 C6           1.3590     3.9980    -4.0960 cc         1 2GA       0.532700
     14 S12          1.0700     5.4780    -5.0080 ss         1 2GA      -0.267400
     15 C15          1.4550     6.7800    -3.8050 c3         1 2GA      -0.016000
     16 H141        -0.3610    -0.6060     0.8230 hc         1 2GA       0.061700
     17 H142        -0.3610    -0.4100    -0.9360 hc         1 2GA       0.061700
     18 H143        -0.3610     1.0150     0.1130 hc         1 2GA       0.061700
     19 H4           2.0050    -0.0000     2.0500 hn         1 2GA       0.333700
     20 H131         5.1590     1.0220    -1.7400 hc         1 2GA       0.057033
     21 H132         5.6710    -0.5150    -1.0310 hc         1 2GA       0.057033
     22 H133         4.6370    -0.5040    -2.4660 hc         1 2GA       0.057033
     23 H151         0.7990     6.6860    -2.9480 h1         1 2GA       0.075367
     24 H152         1.3120     7.7500    -4.2640 h1         1 2GA       0.075367
     25 H153         2.4850     6.6820    -3.4840 h1         1 2GA       0.075367
@<TRIPOS>BOND
     1     1     2 1
     2     2     3 1
     3     2     7 2
     4     3     4 1
     5     4     5 2
     6     5     6 1
     7     5     7 1
     8     7     8 1
     9     8     9 1
    10     9    10 1
    11     9    11 2
    12    10    13 1
    13    11    12 1
    14    12    13 2
    15    13    14 1
    16    14    15 1
    17     1    16 1
    18     1    17 1
    19     1    18 1
    20     3    19 1
    21     6    20 1
    22     6    21 1
    23     6    22 1
    24    15    23 1
    25    15    24 1
    26    15    25 1
@<TRIPOS>SUBSTRUCTURE
     1 2GA         1 TEMP              0 ****  ****    0 ROOT
