@<TRIPOS>MOLECULE
2GA
   25    26     1     0     0
SMALL
bcc


@<TRIPOS>ATOM
      1 C14         0.2450    0.6110    0.0450 c3        1 2GA     -0.054800
      2 C10         1.6510    0.1890   -0.0550 cc        1 2GA      0.010400
      3 N4          2.4500   -0.1650    1.0280 na        1 2GA     -0.011600
      4 N8          3.6970   -0.4900    0.6720 nc        1 2GA     -0.522800
      5 C9          3.7700   -0.3490   -0.6790 cd        1 2GA      0.374600
      6 C13         4.9740   -0.6080   -1.4910 c3        1 2GA     -0.132400
      7 C1          2.4750    0.0790   -1.2050 cd        1 2GA     -0.291400
      8 S11         2.0950    0.2670   -2.8010 ss        1 2GA     -0.041200
      9 C2          1.8430    1.8950   -3.0760 cc        1 2GA      0.360700
     10 S3          1.9800    2.5540   -4.6590 ss        1 2GA     -0.114800
     11 N5          1.4930    2.8440   -2.1660 nd        1 2GA     -0.319000
     12 N7          1.3410    4.0270   -2.6710 nd        1 2GA     -0.333000
     13 C6          1.5440    4.0830   -4.0180 cc        1 2GA      0.379700
     14 S12         1.4040    5.4350   -4.9820 ss        1 2GA     -0.179400
     15 C15         0.7860    6.7000   -3.9430 c3        1 2GA     -0.064000
     16 H141       -0.2670    0.1540    0.9270 hc        1 2GA      0.069367
     17 H142       -0.3000    0.3110   -0.8850 hc        1 2GA      0.069367
     18 H143        0.1940    1.7280    0.1370 hc        1 2GA      0.069367
     19 H4          2.1860   -0.1760    1.9860 hn        1 2GA      0.323700
     20 H131        5.8520   -0.0430   -1.0900 hc        1 2GA      0.057033
     21 H132        4.7880   -0.2890   -2.5470 hc        1 2GA      0.057033
     22 H133        5.2230   -1.7000   -1.4820 hc        1 2GA      0.057033
     23 H151        0.6850    7.5950   -4.6020 h1        1 2GA      0.079367
     24 H152        1.4810    6.9360   -3.1060 h1        1 2GA      0.079367
     25 H153       -0.2070    6.4460   -3.5100 h1        1 2GA      0.079367
@<TRIPOS>BOND
     1    1    2 1   
     2    1   16 1   
     3    1   17 1   
     4    1   18 1   
     5    2    3 1   
     6    2    7 2   
     7    3    4 1   
     8    3   19 1   
     9    4    5 2   
    10    5    6 1   
    11    5    7 1   
    12    6   20 1   
    13    6   21 1   
    14    6   22 1   
    15    7    8 1   
    16    8    9 1   
    17    9   10 1   
    18    9   11 2   
    19   10   13 1   
    20   11   12 1   
    21   12   13 2   
    22   13   14 1   
    23   14   15 1   
    24   15   23 1   
    25   15   24 1   
    26   15   25 1   
@<TRIPOS>SUBSTRUCTURE
     1 2GA         1 TEMP              0 ****  ****    0 ROOT
