@<TRIPOS>MOLECULE
molecule
   44    45     1     0     0
SMALL
bcc


@<TRIPOS>ATOM
      1 N            0.0000     0.0000     0.0000 n7         1 2GB      -0.933300
      2 CA           1.4700     0.0000     0.0000 c3         1 2GB       0.106500
      3 C            1.9720     0.0000     1.4200 c          1 2GB       0.893600
      4 OXT          3.2920    -0.0000     1.6660 o          1 2GB      -0.878300
      5 CB           1.9790     1.2490    -0.7210 c3         1 2GB      -0.045400
      6 CG           1.5740     1.1870    -2.1960 c3         1 2GB      -0.177400
      7 O            1.1870    -0.0000     2.3390 o          1 2GB      -0.878300
      8 CAP          1.4690    -6.0990    -7.3340 ca         1 2GB      -0.134000
      9 CAS          2.0940    -6.8420    -8.3150 ca         1 2GB      -0.135000
     10 CAO          3.2900    -6.4070    -8.8590 ca         1 2GB      -0.169000
     11 CAR          3.8650    -5.2270    -8.4230 ca         1 2GB      -0.135000
     12 CAQ          3.2480    -4.4760    -7.4440 ca         1 2GB      -0.134000
     13 CAN          2.0440    -4.9090    -6.8920 cp         1 2GB       0.021000
     14 CAI          1.3770    -4.1070    -5.8370 cp         1 2GB      -0.101000
     15 CAM          1.9520    -2.9170    -5.3940 ca         1 2GB      -0.126500
     16 CAJ          1.3260    -2.1750    -4.4140 ca         1 2GB      -0.109500
     17 CAL          0.1700    -4.5370    -5.2890 ca         1 2GB      -0.126500
     18 CAK         -0.4470    -3.7870    -4.3090 ca         1 2GB      -0.109500
     19 CAH          0.1320    -2.6100    -3.8690 ca         1 2GB      -0.023300
     20 CAB         -0.5460    -1.7940    -2.7980 c3         1 2GB       0.236700
     21 OAT         -0.0870    -2.2210    -1.5140 os         1 2GB      -0.566200
     22 PBA         -0.6030    -1.5650    -0.1360 p5         1 2GB       1.301700
     23 OAV         -0.0870    -2.4500     1.1050 o          1 2GB      -0.833500
     24 OAU         -2.0830    -1.5260    -0.1330 o          1 2GB      -0.833500
     25 CD           2.0760     2.4190    -2.9060 c          1 2GB       0.891600
     26 OE2          2.6940     3.2580    -2.2960 o          1 2GB      -0.893800
     27 OE1          1.8360     2.5820    -4.2160 o          1 2GB      -0.893800
     28 H1          -0.5000     0.6850     0.5310 hn         1 2GB       0.406800
     29 H2           1.8310    -0.8840    -0.5110 h1         1 2GB       0.040700
     30 H4           3.0590     1.2950    -0.6450 hc         1 2GB       0.040700
     31 H5           1.5470     2.1310    -0.2640 hc         1 2GB       0.040700
     32 H6           0.4940     1.1420    -2.2720 hc         1 2GB       0.021200
     33 H7           2.0060     0.3050    -2.6520 hc         1 2GB       0.021200
     34 H10          3.7780    -6.9930    -9.6280 ha         1 2GB       0.102000
     35 H11          4.8010    -4.8910    -8.8530 ha         1 2GB       0.109500
     36 H12          3.7000    -3.5520    -7.1040 ha         1 2GB       0.140000
     37 H13          2.8870    -2.5750    -5.8200 ha         1 2GB       0.110500
     38 H14          1.7740    -1.2510    -4.0670 ha         1 2GB       0.157500
     39 H15         -0.2830    -5.4590    -5.6330 ha         1 2GB       0.110500
     40 H16         -1.3840    -4.1230    -3.8810 ha         1 2GB       0.157500
     41 H17         -1.6190    -1.9330    -2.8630 h1         1 2GB       0.038200
     42 H18         -0.3090    -0.7470    -2.9370 h1         1 2GB       0.038200
     43 H8           0.5330    -6.4410    -6.9090 ha         1 2GB       0.140000
     44 H9           1.6480    -7.7670    -8.6600 ha         1 2GB       0.109500
@<TRIPOS>BOND
     1     7     3 1
     2    26    25 1
     3    25    27 1
     4    25     6 1
     5     3     4 1
     6     3     2 1
     7     6     5 1
     8     5     2 1
     9     2     1 1
    10    24    22 1
    11    18    17 ar
    12    18    19 ar
    13     1    22 1
    14    17    14 ar
    15    20    19 1
    16    20    21 1
    17    19    16 ar
    18    22    21 1
    19    22    23 1
    20    14    13 1
    21    14    15 ar
    22     8    13 ar
    23     8     9 ar
    24    16    15 ar
    25    13    12 ar
    26     9    10 ar
    27    12    11 ar
    28    10    11 ar
    29     1    28 1
    30     2    29 1
    31     5    30 1
    32     5    31 1
    33     6    32 1
    34     6    33 1
    35     8    43 1
    36     9    44 1
    37    10    34 1
    38    11    35 1
    39    12    36 1
    40    15    37 1
    41    16    38 1
    42    17    39 1
    43    18    40 1
    44    20    41 1
    45    20    42 1
@<TRIPOS>SUBSTRUCTURE
     1 2GB         1 TEMP              0 ****  ****    0 ROOT
