@<TRIPOS>MOLECULE
molecule
   27    28     1     0     0
SMALL
bcc


@<TRIPOS>ATOM
      1 C13          0.0000     0.0000     0.0000 ca         1 2GD      -0.443600
      2 N01          2.0830    -0.0000     3.4990 nv         1 2GD      -1.056500
      3 C02          1.3750     0.0010     2.3100 ca         1 2GD       0.972900
      4 N03          2.0400     0.0000     1.1650 nb         1 2GD      -0.768000
      5 C04          1.3920     0.0000     0.0000 cp         1 2GD       0.548800
      6 C05          2.1440     0.0000    -1.2780 cp         1 2GD      -0.129500
      7 C06          1.7970    -0.8900    -2.2930 ca         1 2GD      -0.102000
      8 C07          2.5000    -0.8860    -3.4810 ca         1 2GD      -0.127000
      9 C08          3.5490    -0.0020    -3.6660 ca         1 2GD      -0.106000
     10 C09          3.8980     0.8850    -2.6620 ca         1 2GD       0.023400
     11 Cl1          5.2150     1.9900    -2.9030 cl         1 2GD      -0.085400
     12 C11          3.1970     0.8940    -1.4710 ca         1 2GD       0.064400
     13 Cl2          3.6320     2.0110    -0.2140 cl         1 2GD      -0.060400
     14 C14         -0.6630    -0.0000     1.2270 ca         1 2GD       0.737200
     15 N15         -2.0480    -0.0010     1.2760 nu         1 2GD      -0.914900
     16 C16         -2.8260    -0.0010     0.0350 c3         1 2GD       0.228100
     17 N17          0.0510     0.0000     2.3480 nb         1 2GD      -0.822000
     18 H1          -0.5550     0.0000    -0.9310 ha         1 2GD       0.145000
     19 H2           2.4320    -0.8600     3.8730 hn         1 2GD       0.444800
     20 H3           2.2190     0.8550     4.0010 hn         1 2GD       0.444800
     21 H4           0.9770    -1.5820    -2.1500 ha         1 2GD       0.144000
     22 H5           2.2310    -1.5770    -4.2700 ha         1 2GD       0.141000
     23 H6           4.0970    -0.0040    -4.6000 ha         1 2GD       0.149000
     24 H13         -2.5170    -0.0000     2.1600 hn         1 2GD       0.453800
     25 H14         -2.5420     0.8510    -0.5690 h1         1 2GD       0.039367
     26 H15         -3.8820     0.0580     0.2710 h1         1 2GD       0.039367
     27 H16         -2.6300    -0.9150    -0.5130 h1         1 2GD       0.039367
@<TRIPOS>BOND
     1     1     5 ar
     2     1    14 ar
     3     2     3 1
     4     3     4 ar
     5     3    17 ar
     6     4     5 ar
     7     5     6 1
     8     6     7 ar
     9     6    12 ar
    10     7     8 ar
    11     8     9 ar
    12     9    10 ar
    13    10    12 ar
    14    12    13 1
    15    14    15 1
    16    14    17 ar
    17    15    16 1
    18    10    11 1
    19     1    18 1
    20     2    19 1
    21     2    20 1
    22     7    21 1
    23     8    22 1
    24     9    23 1
    25    15    24 1
    26    16    25 1
    27    16    26 1
    28    16    27 1
@<TRIPOS>SUBSTRUCTURE
     1 2GD         1 TEMP              0 ****  ****    0 ROOT
