@<TRIPOS>MOLECULE
2GE
   31    33     1     0     0
SMALL
bcc


@<TRIPOS>ATOM
      1 C13          0.0000     0.0000     0.0000 ca         1 2GE      -0.435600
      2 C17         -4.0370    -0.9210    -0.0470 cx         1 2GE      -0.088400
      3 N01          2.0820    -0.0170     3.5000 nv         1 2GE      -0.641500
      4 C02          1.3750    -0.0110     2.3100 ca         1 2GE       0.766900
      5 N03          2.0400     0.0000     1.1670 nb         1 2GE      -0.681000
      6 C04          1.3930     0.0000     0.0000 cp         1 2GE       0.523800
      7 C05          2.1460    -0.0000    -1.2770 cp         1 2GE      -0.147500
      8 C06          1.4610     0.0050    -2.4920 ca         1 2GE      -0.080000
      9 C07          2.1660     0.0050    -3.6780 ca         1 2GE      -0.102000
     10 C08          3.5490    -0.0020    -3.6650 ca         1 2GE      -0.078000
     11 C09          4.2350    -0.0070    -2.4640 ca         1 2GE      -0.050600
     12 Cl1          5.9720    -0.0160    -2.4550 cl         1 2GE      -0.006400
     13 C11          3.5400    -0.0000    -1.2680 ca         1 2GE      -0.016600
     14 Cl2          4.4010     0.0000     0.2400 cl         1 2GE       0.057600
     15 C14         -0.6640     0.0000     1.2260 ca         1 2GE       0.553200
     16 N15         -2.0490     0.0040     1.2760 nu         1 2GE      -0.439900
     17 C16         -2.8260     0.0110     0.0330 cx         1 2GE       0.049500
     18 C18         -4.2420     0.5900     0.0890 cx         1 2GE      -0.088400
     19 N19          0.0500    -0.0060     2.3480 nb         1 2GE      -0.707000
     20 H1          -0.5540    -0.0000    -0.9310 ha         1 2GE       0.139000
     21 H3          -4.2440    -1.3350    -1.0260 hc         1 2GE       0.050200
     22 H4           2.3280    -0.8850     3.9320 hn         1 2GE       0.279800
     23 H5           2.3270     0.8480     3.9400 hn         1 2GE       0.279800
     24 H6           0.3780     0.0100    -2.5040 ha         1 2GE       0.111000
     25 H7           1.6350     0.0100    -4.6220 ha         1 2GE       0.108000
     26 H8           4.0980    -0.0010    -4.5990 ha         1 2GE       0.115000
     27 H9          -2.5180     0.0260     2.1590 hn         1 2GE       0.298800
     28 H10         -2.3100     0.1650    -0.9070 h1         1 2GE       0.079700
     29 H11         -4.5740     1.0990    -0.8080 hc         1 2GE       0.050200
     30 H12         -4.5690     0.9320     1.0630 hc         1 2GE       0.050200
     31 H2          -4.2390    -1.5020     0.8450 hc         1 2GE       0.050200
@<TRIPOS>BOND
     1     1     6 ar  
     2     1    15 ar  
     3     1    20 1   
     4     2    17 1   
     5     2    18 1   
     6     2    21 1   
     7     2    31 1   
     8     3     4 1   
     9     3    22 1   
    10     3    23 1   
    11     4     5 ar  
    12     4    19 ar  
    13     5     6 ar  
    14     6     7 1   
    15     7     8 ar  
    16     7    13 ar  
    17     8     9 ar  
    18     8    24 1   
    19     9    10 ar  
    20     9    25 1   
    21    10    11 ar  
    22    10    26 1   
    23    11    12 1   
    24    11    13 ar  
    25    13    14 1   
    26    15    16 1   
    27    15    19 ar  
    28    16    17 1   
    29    16    27 1   
    30    17    18 1   
    31    17    28 1   
    32    18    29 1   
    33    18    30 1   
@<TRIPOS>SUBSTRUCTURE
     1 2GE         1 TEMP              0 ****  ****    0 ROOT
