@<TRIPOS>MOLECULE
molecule
   31    33     1     0     0
SMALL
bcc


@<TRIPOS>ATOM
      1 C13          0.0000     0.0000     0.0000 ca         1 2GE      -0.444600
      2 C17         -4.0370    -0.9210    -0.0470 cx         1 2GE      -0.152900
      3 N01          2.0820    -0.0170     3.5000 nv         1 2GE      -1.059500
      4 C02          1.3750    -0.0110     2.3100 ca         1 2GE       0.973900
      5 N03          2.0400     0.0000     1.1670 nb         1 2GE      -0.769000
      6 C04          1.3930     0.0000     0.0000 cp         1 2GE       0.549800
      7 C05          2.1460    -0.0000    -1.2770 cp         1 2GE      -0.137500
      8 C06          1.4610     0.0050    -2.4920 ca         1 2GE      -0.101000
      9 C07          2.1660     0.0050    -3.6780 ca         1 2GE      -0.130000
     10 C08          3.5490    -0.0020    -3.6650 ca         1 2GE      -0.102000
     11 C09          4.2350    -0.0070    -2.4640 ca         1 2GE       0.018400
     12 Cl1          5.9720    -0.0160    -2.4550 cl         1 2GE      -0.086400
     13 C11          3.5400    -0.0000    -1.2680 ca         1 2GE       0.066400
     14 Cl2          4.4010     0.0000     0.2400 cl         1 2GE      -0.034400
     15 C14         -0.6640     0.0000     1.2260 ca         1 2GE       0.743200
     16 N15         -2.0490     0.0040     1.2760 nu         1 2GE      -0.876900
     17 C16         -2.8260     0.0110     0.0330 cx         1 2GE       0.174500
     18 C18         -4.2420     0.5900     0.0890 cx         1 2GE      -0.152900
     19 N19          0.0500    -0.0060     2.3480 nb         1 2GE      -0.823000
     20 H1          -0.5540    -0.0000    -0.9310 ha         1 2GE       0.143000
     21 H3          -4.2440    -1.3350    -1.0260 hc         1 2GE       0.080700
     22 H4           2.3280    -0.8850     3.9320 hn         1 2GE       0.444800
     23 H5           2.3270     0.8480     3.9400 hn         1 2GE       0.444800
     24 H6           0.3780     0.0100    -2.5040 ha         1 2GE       0.140000
     25 H7           1.6350     0.0100    -4.6220 ha         1 2GE       0.140000
     26 H8           4.0980    -0.0010    -4.5990 ha         1 2GE       0.149000
     27 H9          -2.5180     0.0260     2.1590 hn         1 2GE       0.457800
     28 H10         -2.3100     0.1650    -0.9070 h1         1 2GE       0.101700
     29 H11         -4.5740     1.0990    -0.8080 hc         1 2GE       0.080700
     30 H12         -4.5690     0.9320     1.0630 hc         1 2GE       0.080700
     31 H2          -4.2390    -1.5020     0.8450 hc         1 2GE       0.080700
@<TRIPOS>BOND
     1     9     8 ar  
     2     9    10 ar  
     3     8     7 ar  
     4     3     4 1   
     5    10    11 ar  
     6     5     4 ar  
     7     5     6 ar  
     8     4    19 ar  
     9     7     6 1   
    10     7    13 ar  
    11     6     1 ar  
    12    11    13 ar  
    13    11    12 1   
    14    19    15 ar  
    15    13    14 1   
    16     1    15 ar  
    17    15    16 1   
    18    16    17 1   
    19    17    18 1   
    20    17     2 1   
    21    18     2 1   
    22     1    20 1   
    23     2    31 1   
    24     2    21 1   
    25     3    22 1   
    26     3    23 1   
    27     8    24 1   
    28     9    25 1   
    29    10    26 1   
    30    16    27 1   
    31    17    28 1   
    32    18    29 1   
    33    18    30 1   
@<TRIPOS>SUBSTRUCTURE
     1 2GE         1 TEMP              0 ****  ****    0 ROOT
