@<TRIPOS>MOLECULE
2GG
   44    46     1     0     0
SMALL
bcc


@<TRIPOS>ATOM
      1 C22          0.0000     0.0000     0.0000 c3         1 2GG       0.244700
      2 O21          1.4270     0.0000     0.0000 os         1 2GG      -0.307900
      3 C18          2.0450     0.0000     1.2120 ca         1 2GG       0.157100
      4 C19          3.4390    -0.0000     1.2830 ca         1 2GG      -0.178000
      5 C20          4.0730     0.0020     2.5250 ca         1 2GG      -0.028000
      6 C17          1.2880     0.0020     2.3820 ca         1 2GG      -0.178000
      7 C16          1.9220     0.0050     3.6240 ca         1 2GG      -0.028000
      8 C7           3.3150     0.0050     3.6960 ca         1 2GG      -0.054000
      9 C3           3.9690     0.0070     4.9740 cc         1 2GG      -0.207600
     10 C2           4.3910    -1.0440     5.8030 cc         1 2GG       0.327800
     11 C8           4.2730    -2.4570     5.5760 c          1 2GG       0.495600
     12 O9           3.7590    -2.9060     4.5250 o          1 2GG      -0.628100
     13 N10          4.7780    -3.3220     6.5660 ns         1 2GG      -0.197900
     14 C26          4.7550    -4.7640     6.4740 c3         1 2GG       0.065000
     15 C27          4.1290    -5.2120     5.1970 c3         1 2GG      -0.028100
     16 N1           4.9650    -0.6030     6.9250 nd         1 2GG      -0.377300
     17 C4           4.3230     1.1340     5.6640 cd         1 2GG       0.371200
     18 C6           4.2090     2.5480     5.4390 ca         1 2GG      -0.193500
     19 C11          3.0700     3.2270     5.8870 ca         1 2GG      -0.019000
     20 C12          2.9430     4.6000     5.6790 ca         1 2GG      -0.109600
     21 Cl25         1.5250     5.4040     6.2440 cl         1 2GG       0.008600
     22 C13          3.9520     5.3030     5.0230 ca         1 2GG       0.180100
     23 O24          3.8540     6.6450     4.8050 oh         1 2GG      -0.493100
     24 C14          5.0910     4.6330     4.5750 ca         1 2GG      -0.214000
     25 C15          5.2190     3.2600     4.7820 ca         1 2GG       0.195100
     26 O23          6.3410     2.6300     4.3330 oh         1 2GG      -0.486100
     27 O3           4.9180     0.7830     6.8320 os         1 2GG      -0.094100
     28 H221        -0.3610    -0.0010    -1.0210 h1         1 2GG      -0.002967
     29 H222        -0.3610     0.8850     0.5100 h1         1 2GG      -0.002967
     30 H223        -0.3610    -0.8840     0.5110 h1         1 2GG      -0.002967
     31 H19          4.0280    -0.0020     0.3740 ha         1 2GG       0.118000
     32 H17          0.2060     0.0020     2.3270 ha         1 2GG       0.118000
     33 H20          5.1550     0.0020     2.5810 ha         1 2GG       0.105000
     34 H16          1.3330     0.0060     4.5340 ha         1 2GG       0.105000
     35 H10          5.1780    -2.9120     7.3860 hn         1 2GG       0.186500
     36 H261         5.7710    -5.1380     6.5220 h1         1 2GG       0.001700
     37 H262         4.1900    -5.1640     7.3070 h1         1 2GG       0.001700
     38 H271         4.1260    -6.2940     5.1560 hc         1 2GG       0.023700
     39 H272         4.6950    -4.8210     4.3600 hc         1 2GG       0.023700
     40 H273         3.1100    -4.8460     5.1460 hc         1 2GG       0.023700
     41 H11          2.2840     2.6830     6.3970 ha         1 2GG       0.123000
     42 H24          3.5110     6.7990     3.9400 ho         1 2GG       0.412000
     43 H14          5.8760     5.1790     4.0650 ha         1 2GG       0.130000
     44 H23          7.1050     3.0780     4.6580 ho         1 2GG       0.413000
@<TRIPOS>BOND
     1     1     2 1   
     2     1    28 1   
     3     1    29 1   
     4     1    30 1   
     5     2     3 1   
     6     3     4 ar  
     7     3     6 ar  
     8     4     5 ar  
     9     4    31 1   
    10     5     8 ar  
    11     5    33 1   
    12     6     7 ar  
    13     6    32 1   
    14     7     8 ar  
    15     7    34 1   
    16     8     9 1   
    17     9    10 1   
    18     9    17 2   
    19    10    11 1   
    20    10    16 2   
    21    11    12 2   
    22    11    13 1   
    23    13    14 1   
    24    13    35 1   
    25    14    15 1   
    26    14    36 1   
    27    14    37 1   
    28    15    38 1   
    29    15    39 1   
    30    15    40 1   
    31    16    27 1   
    32    17    18 1   
    33    17    27 1   
    34    18    19 ar  
    35    18    25 ar  
    36    19    20 ar  
    37    19    41 1   
    38    20    21 1   
    39    20    22 ar  
    40    22    23 1   
    41    22    24 ar  
    42    23    42 1   
    43    24    25 ar  
    44    24    43 1   
    45    25    26 1   
    46    26    44 1   
@<TRIPOS>SUBSTRUCTURE
     1 2GG         1 TEMP              0 ****  ****    0 ROOT
