@<TRIPOS>MOLECULE
2GH
   51    50     1     0     0
SMALL
bcc


@<TRIPOS>ATOM
      1 OAH          0.0000     0.0000     0.0000 o          1 2GH      -0.754500
      2 PAX          1.6100     0.0000     0.0000 p5         1 2GH       0.666900
      3 OAI          2.1460     0.0000     1.5180 o          1 2GH      -0.754500
      4 OAF          2.1040    -1.2070    -0.6990 o          1 2GH      -0.754500
      5 OAS          2.1470     1.3160    -0.7580 os         1 2GH      -0.481200
      6 CAP          3.5320     1.5550    -1.0160 c3         1 2GH       0.284400
      7 CAW          3.6910     2.8880    -1.7490 c3         1 2GH      -0.101000
      8 CAB          2.9270     2.8370    -3.0740 c3         1 2GH       0.016400
      9 CAC          3.1310     4.0180    -0.8820 c3         1 2GH       0.016400
     10 CAV          5.1740     3.1440    -2.0250 c3         1 2GH       0.135100
     11 OAG          5.8650     3.3250    -0.7870 oh         1 2GH      -0.527800
     12 CAU          5.7590     1.9650    -2.7590 c          1 2GH       0.569100
     13 OAE          6.5730     1.2520    -2.2110 o          1 2GH      -0.626100
     14 NAR          5.3780     1.7030    -4.0250 ns         1 2GH      -0.236900
     15 CAN          5.8730     0.5030    -4.7040 c3         1 2GH       0.066000
     16 CAO          5.2920     0.4430    -6.1200 c3         1 2GH      -0.109400
     17 CAT          5.8010    -0.7910    -6.8180 c          1 2GH       0.580100
     18 OAD          6.5530    -1.5490    -6.2420 o          1 2GH      -0.630100
     19 NAQ          5.4200    -1.0540    -8.0840 ns         1 2GH      -0.221900
     20 CAM          5.9140    -2.2530    -8.7640 c3         1 2GH       0.054000
     21 CAL          5.3350    -2.3140   -10.1790 c3         1 2GH      -0.043400
     22 CAK          5.8510    -3.5660   -10.8890 c3         1 2GH      -0.023400
     23 CAJ          5.2710    -3.6270   -12.3040 c3         1 2GH      -0.029400
     24 CAA          5.7870    -4.8800   -13.0130 c3         1 2GH       0.006900
     25 H3           4.0730     1.5910    -0.0780 h1         1 2GH      -0.010800
     26 H4           3.9280     0.7550    -1.6300 h1         1 2GH      -0.010800
     27 H5           3.3890     3.5120    -3.7840 hc         1 2GH      -0.002800
     28 H6           2.9520     1.8270    -3.4660 hc         1 2GH      -0.002800
     29 H7           1.8980     3.1340    -2.9090 hc         1 2GH      -0.002800
     30 H8           2.0500     3.9630    -0.8700 hc         1 2GH      -0.002800
     31 H9           3.5080     3.9170     0.1290 hc         1 2GH      -0.002800
     32 H10          3.4400     4.9730    -1.2890 hc         1 2GH      -0.002800
     33 H11          5.2800     4.0360    -2.6310 h1         1 2GH      -0.029300
     34 H12          6.4870     4.0280    -0.8740 ho         1 2GH       0.350000
     35 H13          4.8130     2.3620    -4.5240 hn         1 2GH       0.177500
     36 H14          5.5680    -0.3770    -4.1510 h1         1 2GH       0.042200
     37 H15          6.9540     0.5390    -4.7590 h1         1 2GH       0.042200
     38 H16          5.5970     1.3230    -6.6730 hc         1 2GH       0.026700
     39 H17          4.2110     0.4070    -6.0650 hc         1 2GH       0.026700
     40 H18          4.7990    -0.4300    -8.5600 hn         1 2GH       0.169500
     41 H19          5.6090    -3.1330    -8.2110 h1         1 2GH       0.025200
     42 H20          6.9960    -2.2180    -8.8180 h1         1 2GH       0.025200
     43 H21          5.6400    -1.4340   -10.7320 hc         1 2GH       0.014700
     44 H22          4.2530    -2.3490   -10.1250 hc         1 2GH       0.014700
     45 H23          6.9320    -3.5310   -10.9430 hc         1 2GH       0.018200
     46 H24          5.5460    -4.4460   -10.3350 hc         1 2GH       0.018200
     47 H25          5.5760    -2.7470   -12.8570 hc         1 2GH       0.010700
     48 H26          4.1900    -3.6630   -12.2500 hc         1 2GH       0.010700
     49 H27          6.8680    -4.8420   -13.0720 hc         1 2GH      -0.001967
     50 H28          5.3720    -4.9250   -14.0130 hc         1 2GH      -0.001967
     51 H29          5.4860    -5.7600   -12.4580 hc         1 2GH      -0.001967
@<TRIPOS>BOND
     1     1     2 1   
     2     2     3 1   
     3     2     4 1   
     4     2     5 1   
     5     5     6 1   
     6     6     7 1   
     7     6    25 1   
     8     6    26 1   
     9     7     8 1   
    10     7     9 1   
    11     7    10 1   
    12     8    27 1   
    13     8    28 1   
    14     8    29 1   
    15     9    30 1   
    16     9    31 1   
    17     9    32 1   
    18    10    11 1   
    19    10    12 1   
    20    10    33 1   
    21    11    34 1   
    22    12    13 2   
    23    12    14 1   
    24    14    15 1   
    25    14    35 1   
    26    15    16 1   
    27    15    36 1   
    28    15    37 1   
    29    16    17 1   
    30    16    38 1   
    31    16    39 1   
    32    17    18 2   
    33    17    19 1   
    34    19    20 1   
    35    19    40 1   
    36    20    21 1   
    37    20    41 1   
    38    20    42 1   
    39    21    22 1   
    40    21    43 1   
    41    21    44 1   
    42    22    23 1   
    43    22    45 1   
    44    22    46 1   
    45    23    24 1   
    46    23    47 1   
    47    23    48 1   
    48    24    49 1   
    49    24    50 1   
    50    24    51 1   
@<TRIPOS>SUBSTRUCTURE
     1 2GH         1 TEMP              0 ****  ****    0 ROOT
