@<TRIPOS>MOLECULE
2GJ
   66    69     1     0     0
SMALL
bcc


@<TRIPOS>ATOM
      1 C25         0.3810    0.5800    1.0420 c3        1 2GJ      0.128800
      2 C26         1.8410    0.1610    0.8310 c3        1 2GJ      0.126400
      3 O27         2.3900   -0.4370    1.9990 os        1 2GJ     -0.407600
      4 C28         1.6300   -1.5560    2.4370 c3        1 2GJ      0.126400
      5 C29         0.1670   -1.1760    2.6910 c3        1 2GJ      0.128800
      6 N24        -0.4440   -0.5160    1.5430 n3        1 2GJ     -0.728600
      7 C23        -1.8100   -0.0860    1.8090 c3        1 2GJ      0.205100
      8 C20        -2.7830   -1.2220    1.9510 ca        1 2GJ     -0.052300
      9 C21        -2.8070   -2.2670    1.0210 ca        1 2GJ     -0.119000
     10 C22        -3.7460   -3.2890    1.1350 ca        1 2GJ     -0.106500
     11 C19        -3.7160   -1.2080    2.9940 ca        1 2GJ     -0.119000
     12 C18        -4.6600   -2.2260    3.1100 ca        1 2GJ     -0.106500
     13 C7         -4.6780   -3.2770    2.1830 ca        1 2GJ     -0.070000
     14 C3         -5.6480   -4.3420    2.3070 cc        1 2GJ     -0.209600
     15 C2         -5.4810   -5.5940    3.0330 cc        1 2GJ      0.209800
     16 C8         -4.2990   -6.0070    3.7780 c         1 2GJ      0.497600
     17 O9         -3.2530   -5.4080    3.9590 o         1 2GJ     -0.389100
     18 N10        -4.4110   -7.3950    4.4020 n4        1 2GJ     -0.677800
     19 C11        -3.2200   -7.8090    5.2040 c3        1 2GJ      0.110800
     20 C12        -3.1810   -7.1880    6.5840 c3        1 2GJ     -0.133100
     21 N1         -6.6190   -6.3390    2.9110 nd        1 2GJ     -0.356300
     22 O5         -7.4750   -5.6910    2.1910 os        1 2GJ     -0.026100
     23 C4         -6.9410   -4.4340    1.7750 cd        1 2GJ      0.410200
     24 C6         -7.7870   -3.6120    0.9680 ca        1 2GJ     -0.261500
     25 C13        -7.3340   -2.3580    0.5120 ca        1 2GJ     -0.019000
     26 C14        -8.1220   -1.5290   -0.2750 ca        1 2GJ     -0.127300
     27 C30        -7.6150   -0.2010   -0.7460 c3        1 2GJ     -0.020400
     28 C32        -7.3130    0.7120    0.4270 c3        1 2GJ     -0.090100
     29 C31        -6.3890   -0.3670   -1.6230 c3        1 2GJ     -0.090100
     30 C15        -9.4230   -1.9730   -0.6240 ca        1 2GJ      0.222100
     31 O34       -10.1790   -1.1400   -1.3990 oh        1 2GJ     -0.472100
     32 C16        -9.9080   -3.2140   -0.1890 ca        1 2GJ     -0.318000
     33 C17        -9.0900   -4.0270    0.6030 ca        1 2GJ      0.221100
     34 O33        -9.5010   -5.2500    1.0600 oh        1 2GJ     -0.483100
     35 H251       -0.0430    0.9050    0.0520 h1        1 2GJ      0.043200
     36 H252        0.3600    1.4660    1.7410 h1        1 2GJ      0.043200
     37 H261        1.9290   -0.5490   -0.0320 h1        1 2GJ      0.057450
     38 H262        2.4790    1.0670    0.6540 h1        1 2GJ      0.057450
     39 H281        2.1200   -1.8690    3.3960 h1        1 2GJ      0.057450
     40 H282        1.7010   -2.3800    1.6790 h1        1 2GJ      0.057450
     41 H291       -0.4210   -2.1120    2.8970 h1        1 2GJ      0.043200
     42 H292        0.1240   -0.5260    3.6140 h1        1 2GJ      0.043200
     43 H231       -1.8690    0.5670    2.7310 h1        1 2GJ      0.050700
     44 H232       -2.1510    0.5400    0.9310 h1        1 2GJ      0.050700
     45 H21        -2.0760   -2.2830    0.1960 ha        1 2GJ      0.155000
     46 H19        -3.7090   -0.3880    3.7300 ha        1 2GJ      0.155000
     47 H22        -3.7590   -4.1040    0.3950 ha        1 2GJ      0.139000
     48 H18        -5.3930   -2.2010    3.9300 ha        1 2GJ      0.139000
     49 H10        -5.2440   -7.4060    5.0050 hn        1 2GJ      0.466800
     50 H111       -2.2950   -7.5170    4.6250 hx        1 2GJ      0.109700
     51 H112       -3.2560   -8.9340    5.2880 hx        1 2GJ      0.109700
     52 H121       -3.0950   -6.0750    6.5260 hc        1 2GJ      0.080033
     53 H122       -4.0820   -7.4570    7.1880 hc        1 2GJ      0.080033
     54 H123       -2.2750   -7.5800    7.1140 hc        1 2GJ      0.080033
     55 H13        -6.3170   -2.0270    0.7930 ha        1 2GJ      0.162000
     56 H30        -8.4210    0.2900   -1.3670 hc        1 2GJ      0.081700
     57 H321       -6.5040    0.2830    1.0670 hc        1 2GJ      0.039700
     58 H322       -6.9760    1.7090    0.0530 hc        1 2GJ      0.039700
     59 H323       -8.2240    0.8570    1.0550 hc        1 2GJ      0.039700
     60 H311       -5.5490   -0.8290   -1.0500 hc        1 2GJ      0.039700
     61 H312       -6.0550    0.6310   -1.9980 hc        1 2GJ      0.039700
     62 H313       -6.6210   -1.0170   -2.5010 hc        1 2GJ      0.039700
     63 H34       -11.0390   -1.5590   -1.5640 ho        1 2GJ      0.437000
     64 H16       -10.9180   -3.5470   -0.4660 ha        1 2GJ      0.154000
     65 H33       -10.4040   -5.4130    0.7420 ho        1 2GJ      0.440000
     66 H102       -4.5590   -8.0690    3.6420 hn        1 2GJ      0.466800
@<TRIPOS>BOND
     1    1    2 1   
     2    1    6 1   
     3    1   35 1   
     4    1   36 1   
     5    2    3 1   
     6    2   37 1   
     7    2   38 1   
     8    3    4 1   
     9    4    5 1   
    10    4   39 1   
    11    4   40 1   
    12    5    6 1   
    13    5   41 1   
    14    5   42 1   
    15    6    7 1   
    16    7    8 1   
    17    7   43 1   
    18    7   44 1   
    19    8    9 ar  
    20    8   11 ar  
    21    9   10 ar  
    22    9   45 1   
    23   10   13 ar  
    24   10   47 1   
    25   11   12 ar  
    26   11   46 1   
    27   12   13 ar  
    28   12   48 1   
    29   13   14 1   
    30   14   15 1   
    31   14   23 2   
    32   15   16 1   
    33   15   21 2   
    34   16   17 2   
    35   16   18 1   
    36   18   19 1   
    37   18   49 1   
    38   18   66 1   
    39   19   20 1   
    40   19   50 1   
    41   19   51 1   
    42   20   52 1   
    43   20   53 1   
    44   20   54 1   
    45   21   22 1   
    46   22   23 1   
    47   23   24 1   
    48   24   25 ar  
    49   24   33 ar  
    50   25   26 ar  
    51   25   55 1   
    52   26   27 1   
    53   26   30 ar  
    54   27   28 1   
    55   27   29 1   
    56   27   56 1   
    57   28   57 1   
    58   28   58 1   
    59   28   59 1   
    60   29   60 1   
    61   29   61 1   
    62   29   62 1   
    63   30   31 1   
    64   30   32 ar  
    65   31   63 1   
    66   32   33 ar  
    67   32   64 1   
    68   33   34 1   
    69   34   65 1   
@<TRIPOS>SUBSTRUCTURE
     1 2GJ         1 TEMP              0 ****  ****    0 ROOT
