@<TRIPOS>MOLECULE
2GN
   67    72     1     0     0
SMALL
bcc


@<TRIPOS>ATOM
      1 O25          0.0000     0.0000     0.0000 o          1 2GN      -0.576800
      2 S21          1.4210     0.0000     0.0000 sy         1 2GN       1.049200
      3 O24          2.1980     0.0000     1.1900 o          1 2GN      -0.576800
      4 N23          1.8890    -1.3320    -0.8650 n3         1 2GN      -0.524500
      5 C28          3.2130    -1.9410    -0.6600 c3         1 2GN       0.185800
      6 C30          3.0240    -3.4460    -0.4380 c3         1 2GN       0.201400
      7 O31          2.2360    -3.9830    -1.5030 os         1 2GN      -0.389600
      8 C29          0.9130    -3.4460    -1.5810 c3         1 2GN       0.201400
      9 C27          0.9930    -1.9450    -1.8570 c3         1 2GN       0.185800
     10 C18          1.9180     1.4200    -0.9180 ca         1 2GN      -0.170500
     11 C16          0.9650     2.2730    -1.4340 ca         1 2GN       0.052000
     12 C22          3.2640     1.6790    -1.1150 ca         1 2GN       0.072400
     13 Cl2          4.4560     0.6030    -0.4550 cl         1 2GN       0.029600
     14 C19          3.6640     2.7920    -1.8350 ca         1 2GN      -0.141000
     15 C17          2.7210     3.6520    -2.3620 ca         1 2GN       0.066400
     16 Cl1          3.2220     5.0470    -3.2650 cl         1 2GN       0.069600
     17 C14          1.3600     3.3980    -2.1620 ca         1 2GN      -0.202600
     18 C13          0.3450     4.3150    -2.7180 c          1 2GN       0.605700
     19 O15          0.6920     5.2940    -3.3500 o          1 2GN      -0.595100
     20 N10         -0.9650     4.0670    -2.5240 ns         1 2GN       0.007900
     21 C5          -1.9190     4.9280    -3.0460 cc         1 2GN      -0.017500
     22 C2          -3.2700     4.7690    -2.9070 cd         1 2GN      -0.064000
     23 C6          -3.8640     3.6770    -2.1960 ch         1 2GN       0.243800
     24 N11         -4.3530     2.8220    -1.6320 n1         1 2GN      -0.379800
     25 S7          -1.5650     6.3340    -3.9420 ss         1 2GN      -0.129800
     26 C3          -3.2630     6.7260    -4.1510 cc         1 2GN      -0.052400
     27 C8          -3.8040     7.9280    -4.9010 c3         1 2GN       0.215100
     28 N12         -5.2270     7.6970    -5.1910 n3         1 2GN      -0.478600
     29 C9          -5.9570     7.3140    -3.9740 c3         1 2GN       0.145800
     30 C4          -5.5580     5.8910    -3.5690 c3         1 2GN       0.038900
     31 C1          -4.0390     5.8130    -3.5520 cd         1 2GN      -0.042300
     32 C32         -5.8340     8.8780    -5.8200 c3         1 2GN       0.168100
     33 C33         -5.2210     9.0930    -7.1790 ca         1 2GN      -0.106300
     34 C38         -5.7840     8.4970    -8.2920 ca         1 2GN      -0.114500
     35 C37         -5.2260     8.6910    -9.5400 ca         1 2GN      -0.067500
     36 C36         -4.0940     9.4910    -9.6770 ca         1 2GN      -0.095500
     37 C35         -3.5300    10.0900    -8.5520 ca         1 2GN      -0.067500
     38 C34         -4.0990     9.8930    -7.3100 ca         1 2GN      -0.114500
     39 C06         -3.4890     9.7030   -11.0150 cc         1 2GN       0.574500
     40 N01         -2.4240    10.4300   -11.2930 nd         1 2GN      -0.721800
     41 N02         -3.9160     9.1880   -12.1780 nc         1 2GN      -0.342000
     42 N05         -3.1200     9.6130   -13.1000 nd         1 2GN      -0.360800
     43 N04         -2.2210    10.3620   -12.5630 na         1 2GN       0.680900
     44 H281         4.0280    -1.4760    -0.1180 h1         1 2GN       0.029950
     45 H282         3.6800    -2.1050    -1.6230 h1         1 2GN       0.029950
     46 H271         0.3690    -1.0790    -2.0420 h1         1 2GN       0.029950
     47 H272         1.5820    -1.9360    -2.7660 h1         1 2GN       0.029950
     48 H301         2.6240    -3.4270     0.5690 h1         1 2GN       0.012700
     49 H302         3.9090    -4.0630    -0.3390 h1         1 2GN       0.012700
     50 H291         0.2840    -4.0330    -0.9230 h1         1 2GN       0.012700
     51 H292         0.3710    -3.6420    -2.4980 h1         1 2GN       0.012700
     52 H16         -0.0970     2.0980    -1.3120 ha         1 2GN       0.130000
     53 H19          4.7320     2.8270    -2.0160 ha         1 2GN       0.135000
     54 H10         -1.5830     3.3750    -2.1480 hn         1 2GN       0.207500
     55 H81         -3.3120     8.7620    -4.4150 h1         1 2GN       0.046200
     56 H82         -3.3990     7.6910    -5.8770 h1         1 2GN       0.046200
     57 H91         -7.0380     7.2590    -3.9390 h1         1 2GN       0.009200
     58 H92         -5.7220     8.0210    -3.1880 h1         1 2GN       0.009200
     59 H321        -5.1130     9.5920    -5.4390 h1         1 2GN       0.038700
     60 H322        -6.8910     9.1100    -5.8400 h1         1 2GN       0.038700
     61 H41         -6.3170     5.2300    -3.9700 hc         1 2GN       0.027200
     62 H42         -5.7090     5.6650    -2.5200 hc         1 2GN       0.027200
     63 H38         -6.4380     7.6420    -8.1740 ha         1 2GN       0.112500
     64 H34         -3.7200    10.3270    -6.3920 ha         1 2GN       0.112500
     65 H37         -5.4290     7.8740   -10.2210 ha         1 2GN       0.122000
     66 H35         -2.8400    10.9140    -8.4140 ha         1 2GN       0.122000
     67 H04         -1.4340    10.8940   -12.8790 hn         1 2GN       0.182700
@<TRIPOS>BOND
     1     1     2 2   
     2     2     3 2   
     3     2     4 1   
     4     2    10 1   
     5     4     5 1   
     6     4     9 1   
     7     5     6 1   
     8     5    44 1   
     9     5    45 1   
    10     6     7 1   
    11     6    48 1   
    12     6    49 1   
    13     7     8 1   
    14     8     9 1   
    15     8    50 1   
    16     8    51 1   
    17     9    46 1   
    18     9    47 1   
    19    10    11 ar  
    20    10    12 ar  
    21    11    17 ar  
    22    11    52 1   
    23    12    13 1   
    24    12    14 ar  
    25    14    15 ar  
    26    14    53 1   
    27    15    16 1   
    28    15    17 ar  
    29    17    18 1   
    30    18    19 2   
    31    18    20 1   
    32    20    21 1   
    33    20    54 1   
    34    21    22 2   
    35    21    25 1   
    36    22    23 1   
    37    22    31 1   
    38    23    24 3   
    39    25    26 1   
    40    26    27 1   
    41    26    31 2   
    42    27    28 1   
    43    27    55 1   
    44    27    56 1   
    45    28    29 1   
    46    28    32 1   
    47    29    30 1   
    48    29    57 1   
    49    29    58 1   
    50    30    31 1   
    51    30    61 1   
    52    30    62 1   
    53    32    33 1   
    54    32    59 1   
    55    32    60 1   
    56    33    34 ar  
    57    33    38 ar  
    58    34    35 ar  
    59    34    63 1   
    60    35    36 ar  
    61    35    65 1   
    62    36    37 ar  
    63    36    39 1   
    64    37    38 ar  
    65    37    66 1   
    66    38    64 1   
    67    39    40 2   
    68    39    41 1   
    69    40    43 1   
    70    41    42 2   
    71    42    43 1   
    72    43    67 1   
@<TRIPOS>SUBSTRUCTURE
     1 2GN         1 TEMP              0 ****  ****    0 ROOT
