@<TRIPOS>MOLECULE
molecule
   37    39     1     0     0
SMALL
bcc


@<TRIPOS>ATOM
      1 P            0.0000     0.0000     0.0000 p5         1 2GP       1.134900
      2 O1P          1.6090     0.0000     0.0000 o          1 2GP      -0.853167
      3 O2P         -0.5380     0.0000     1.5170 o          1 2GP      -0.853167
      4 O3P         -0.4930    -1.2090    -0.6970 o          1 2GP      -0.853167
      5 O5'         -5.4800     3.4880    -3.0100 oh         1 2GP      -0.605800
      6 C5'         -4.6650     2.3150    -3.0410 c3         1 2GP       0.143400
      7 C4'         -3.4020     2.5500    -2.2090 c3         1 2GP       0.114100
      8 O4'         -3.7490     2.8120    -0.8320 os         1 2GP      -0.430600
      9 C3'         -2.5410     1.2690    -2.1620 c3         1 2GP       0.113100
     10 O3'         -1.4870     1.3380    -3.1240 oh         1 2GP      -0.555800
     11 C2'         -1.9650     1.2550    -0.7260 c3         1 2GP       0.144100
     12 O2'         -0.5380     1.3130    -0.7590 os         1 2GP      -0.490200
     13 C1'         -2.5500     2.5280    -0.0770 c3         1 2GP       0.210800
     14 N9          -2.8800     2.2790     1.3270 na         1 2GP      -0.131900
     15 C8          -4.0640     1.7990     1.8050 cc         1 2GP       0.479400
     16 N7          -4.0090     1.7010     3.1020 nd         1 2GP      -0.650000
     17 C5          -2.7910     2.1130     3.5310 cd         1 2GP       0.268800
     18 C6          -2.1810     2.2230     4.8020 c          1 2GP       0.653000
     19 O6          -2.7840     1.9090     5.8150 o          1 2GP      -0.618500
     20 N1          -0.9110     2.6800     4.8670 ns         1 2GP      -0.472400
     21 C2          -0.2490     3.0350     3.7300 cd         1 2GP       0.384800
     22 N2           1.0370     3.5020     3.8260 nz         1 2GP      -0.703600
     23 N3          -0.8040     2.9360     2.5430 nc         1 2GP      -0.484100
     24 C4          -2.0570     2.4860     2.4000 cc         1 2GP       0.111800
     25 HO5'        -6.2490     3.3500    -3.5380 ho         1 2GP       0.390000
     26 H5'1        -4.3870     2.0950    -4.0640 h1         1 2GP       0.028200
     27 H5'2        -5.2180     1.4800    -2.6290 h1         1 2GP       0.028200
     28 H3'         -3.1580     0.3940    -2.3280 h1         1 2GP       0.050700
     29 H2'         -2.3020     0.3730    -0.1950 h1         1 2GP       0.108700
     30 H1'         -1.8490     3.3490    -0.1650 h2         1 2GP       0.092700
     31 H8          -4.9220     1.5380     1.1970 h5         1 2GP       0.084100
     32 HN1         -0.4550     2.7590     5.7540 hn         1 2GP       0.315500
     33 HN21         1.2840     3.9760     2.9800 hn         1 2GP       0.459133
     34 HN22         1.1050     4.1380     4.5960 hn         1 2GP       0.459133
     35 HO3'        -1.6210     0.6790    -3.7850 ho         1 2GP       0.396000
     36 H23          1.6610     2.7340     3.9770 hn         1 2GP       0.459133
     37 H4'         -2.8260     3.3730    -2.6130 h1         1 2GP       0.072700
@<TRIPOS>BOND
     1     1     2 1   
     2     1     3 1   
     3     1     4 1   
     4     1    12 1   
     5     5     6 1   
     6     5    25 1   
     7     6     7 1   
     8     6    26 1   
     9     6    27 1   
    10     7     8 1   
    11     7     9 1   
    12     7    37 1   
    13     8    13 1   
    14     9    10 1   
    15     9    11 1   
    16     9    28 1   
    17    10    35 1   
    18    11    12 1   
    19    11    13 1   
    20    11    29 1   
    21    13    14 1   
    22    13    30 1   
    23    14    15 1   
    24    14    24 1   
    25    15    16 2   
    26    15    31 1   
    27    16    17 1   
    28    17    18 1   
    29    17    24 2   
    30    18    19 2   
    31    18    20 1   
    32    20    21 1   
    33    20    32 1   
    34    21    22 1   
    35    21    23 2   
    36    22    33 1   
    37    22    34 1   
    38    23    24 1   
    39    36    22 1   
@<TRIPOS>SUBSTRUCTURE
     1 2GP         1 TEMP              0 ****  ****    0 ROOT
