@<TRIPOS>MOLECULE
molecule
   30    32     1     0     0
SMALL
bcc


@<TRIPOS>ATOM
      1 O            0.0000     0.0000     0.0000 o          1 2GQ      -0.640500
      2 C8           1.2180     0.0000     0.0000 c          1 2GQ       0.723100
      3 C3           1.9630     0.0000     1.2610 ca         1 2GQ      -0.199600
      4 C2           1.3160    -0.0010     2.4990 ca         1 2GQ      -0.043000
      5 C1           2.0570    -0.0000     3.6470 ca         1 2GQ      -0.176000
      6 N            1.9040    -0.0040    -1.1620 ns         1 2GQ      -0.453100
      7 C7           3.2730    -0.0040    -1.1850 cc         1 2GQ       0.340600
      8 C6           4.0150     0.0010    -0.0520 cd         1 2GQ      -0.323200
      9 C4           3.3770     0.0010     1.2120 ca         1 2GQ       0.055200
     10 C5           4.1080     0.0010     2.4060 ca         1 2GQ      -0.160000
     11 C            3.4460     0.0010     3.6000 ca         1 2GQ      -0.084000
     12 N1           3.9190    -0.0100    -2.4060 nh         1 2GQ      -0.746400
     13 C12          3.2640    -0.0170    -3.7230 c3         1 2GQ       0.226300
     14 C11          4.3800    -0.0480    -4.7890 c3         1 2GQ      -0.094900
     15 C10          5.5890    -0.6290    -4.0090 c3         1 2GQ      -0.094900
     16 C9           5.3800    -0.0040    -2.6050 c3         1 2GQ       0.226300
     17 H1           0.2340    -0.0020     2.5480 ha         1 2GQ       0.149000
     18 H2           1.5550    -0.0000     4.6070 ha         1 2GQ       0.130000
     19 H3           5.0970     0.0020    -0.1130 ha         1 2GQ       0.146000
     20 H5           5.1920     0.0030     2.3820 ha         1 2GQ       0.132000
     21 H6           4.0110     0.0020     4.5240 ha         1 2GQ       0.126000
     22 H7           2.6680     0.8800    -3.8410 h1         1 2GQ       0.047700
     23 H8           2.6400    -0.8970    -3.8180 h1         1 2GQ       0.047700
     24 H9           4.5980     0.9530    -5.1420 hc         1 2GQ       0.059700
     25 H10          4.1050    -0.7000    -5.6090 hc         1 2GQ       0.059700
     26 H11          6.5240    -0.2970    -4.4440 hc         1 2GQ       0.059700
     27 H12          5.5350    -1.7100    -3.9630 hc         1 2GQ       0.059700
     28 H13          5.7580     1.0110    -2.5850 h1         1 2GQ       0.047700
     29 H14          5.8650    -0.6090    -1.8480 h1         1 2GQ       0.047700
     30 H15          1.4000    -0.0080    -2.0270 hn         1 2GQ       0.331500
@<TRIPOS>BOND
     1    15    16 1   
     2    15    14 1   
     3    16    12 1   
     4    14    13 1   
     5    12    13 1   
     6    12     7 1   
     7     6     7 1   
     8     6     2 1   
     9     7     8 2   
    10     1     2 2   
    11     2     3 1   
    12     8     9 1   
    13     3     9 ar  
    14     3     4 ar  
    15     9    10 ar  
    16     4     5 ar  
    17    10    11 ar  
    18     5    11 ar  
    19     4    17 1   
    20     5    18 1   
    21     8    19 1   
    22    10    20 1   
    23    11    21 1   
    24    13    22 1   
    25    13    23 1   
    26    14    24 1   
    27    14    25 1   
    28    15    26 1   
    29    15    27 1   
    30    16    28 1   
    31    16    29 1   
    32     6    30 1   
@<TRIPOS>SUBSTRUCTURE
     1 2GQ         1 TEMP              0 ****  ****    0 ROOT
