@<TRIPOS>MOLECULE
2GQ
   30    32     1     0     0
SMALL
bcc


@<TRIPOS>ATOM
      1 O            0.0000     0.0000     0.0000 o          1 2GQ      -0.685500
      2 C8           1.2180     0.0000     0.0000 c          1 2GQ       0.630100
      3 C3           1.9630     0.0000     1.2610 ca         1 2GQ      -0.206600
      4 C2           1.3160    -0.0010     2.4990 ca         1 2GQ      -0.010000
      5 C1           2.0570    -0.0000     3.6470 ca         1 2GQ      -0.154000
      6 N            1.9040    -0.0040    -1.1620 ns         1 2GQ       0.007900
      7 C7           3.2730    -0.0040    -1.1850 cc         1 2GQ       0.056600
      8 C6           4.0150     0.0010    -0.0520 cd         1 2GQ      -0.309200
      9 C4           3.3770     0.0010     1.2120 ca         1 2GQ       0.060200
     10 C5           4.1080     0.0010     2.4060 ca         1 2GQ      -0.137000
     11 C            3.4460     0.0010     3.6000 ca         1 2GQ      -0.056000
     12 N1           3.9190    -0.0100    -2.4060 nh         1 2GQ      -0.398400
     13 C12          3.2640    -0.0170    -3.7230 c3         1 2GQ       0.173800
     14 C11          4.3800    -0.0480    -4.7890 c3         1 2GQ      -0.029900
     15 C10          5.5890    -0.6290    -4.0090 c3         1 2GQ      -0.029900
     16 C9           5.3800    -0.0040    -2.6050 c3         1 2GQ       0.173800
     17 H1           0.2340    -0.0020     2.5480 ha         1 2GQ       0.120000
     18 H2           1.5550    -0.0000     4.6070 ha         1 2GQ       0.104000
     19 H3           5.0970     0.0020    -0.1130 ha         1 2GQ       0.135000
     20 H5           5.1920     0.0030     2.3820 ha         1 2GQ       0.107000
     21 H6           4.0110     0.0020     4.5240 ha         1 2GQ       0.096000
     22 H7           2.6680     0.8800    -3.8410 h1         1 2GQ       0.017950
     23 H8           2.6400    -0.8970    -3.8180 h1         1 2GQ       0.017950
     24 H9           4.5980     0.9530    -5.1420 hc         1 2GQ       0.026950
     25 H10          4.1050    -0.7000    -5.6090 hc         1 2GQ       0.026950
     26 H11          6.5240    -0.2970    -4.4440 hc         1 2GQ       0.026950
     27 H12          5.5350    -1.7100    -3.9630 hc         1 2GQ       0.026950
     28 H13          5.7580     1.0110    -2.5850 h1         1 2GQ       0.017950
     29 H14          5.8650    -0.6090    -1.8480 h1         1 2GQ       0.017950
     30 H15          1.4000    -0.0080    -2.0270 hn         1 2GQ       0.173500
@<TRIPOS>BOND
     1     1     2 2   
     2     2     3 1   
     3     2     6 1   
     4     3     4 ar  
     5     3     9 ar  
     6     4     5 ar  
     7     4    17 1   
     8     5    11 ar  
     9     5    18 1   
    10     6     7 1   
    11     6    30 1   
    12     7     8 2   
    13     7    12 1   
    14     8     9 1   
    15     8    19 1   
    16     9    10 ar  
    17    10    11 ar  
    18    10    20 1   
    19    11    21 1   
    20    12    13 1   
    21    12    16 1   
    22    13    14 1   
    23    13    22 1   
    24    13    23 1   
    25    14    15 1   
    26    14    24 1   
    27    14    25 1   
    28    15    16 1   
    29    15    26 1   
    30    15    27 1   
    31    16    28 1   
    32    16    29 1   
@<TRIPOS>SUBSTRUCTURE
     1 2GQ         1 TEMP              0 ****  ****    0 ROOT
