@<TRIPOS>MOLECULE
2GR
   41    41     1     0     0
SMALL
bcc


@<TRIPOS>ATOM
      1 CAK          0.0000     0.0000     0.0000 ca         1 2GR      -0.062500
      2 CAI          1.3790     0.0000     0.0000 ca         1 2GR      -0.127000
      3 CAH          2.0750     0.0000     1.1960 ca         1 2GR      -0.118000
      4 CAJ          1.3920    -0.0010     2.4000 ca         1 2GR      -0.127000
      5 CAL          0.0140    -0.0000     2.4150 ca         1 2GR      -0.062500
      6 CAW         -0.6940     0.0000     1.2120 ca         1 2GR      -0.119600
      7 CAV         -2.1730     0.0060     1.2200 c          1 2GR       0.553700
      8 OAC         -2.7860     0.0110     0.1700 o          1 2GR      -0.697100
      9 NAQ         -2.8400     0.0060     2.3900 ns         1 2GR      -0.115900
     10 CAM         -4.3050     0.0110     2.4000 c3         1 2GR       0.014000
     11 CAN         -4.8070     0.0100     3.8440 c3         1 2GR       0.251400
     12 OAS         -4.4200     1.2290     4.4840 os         1 2GR      -0.466200
     13 PAY         -4.7830     1.5680     6.0160 p5         1 2GR       0.715700
     14 OAG         -3.9770     2.8840     6.4790 o          1 2GR      -0.659500
     15 OAD         -4.4000     0.4270     6.8770 o          1 2GR      -0.659500
     16 N           -6.4370     1.8450     6.1530 n7         1 2GR      -0.575300
     17 CA          -6.8530     2.9740     5.3100 c3         1 2GR       0.066500
     18 C           -6.8740     4.2350     6.1340 c          1 2GR       0.987600
     19 OXT         -7.2270     5.4000     5.5670 o          1 2GR      -0.933300
     20 O           -6.5730     4.1980     7.3020 o          1 2GR      -0.933300
     21 CB          -8.2530     2.7040     4.7530 c3         1 2GR      -0.007400
     22 CG          -8.2060     1.4950     3.8170 c3         1 2GR      -0.136400
     23 CD          -9.5840     1.2300     3.2690 c          1 2GR       0.987600
     24 OE2        -10.5090     1.9360     3.5940 o          1 2GR      -0.945300
     25 OE1         -9.7830     0.2100     2.4200 o          1 2GR      -0.945300
     26 H1          -0.5420    -0.0830    -0.9340 ha         1 2GR       0.125500
     27 H2           1.9200     0.0000    -0.9390 ha         1 2GR       0.091000
     28 H3           3.1580     0.0010     1.1910 ha         1 2GR       0.082000
     29 H4           1.9430    -0.0010     3.3330 ha         1 2GR       0.091000
     30 H5          -0.5180    -0.0760     3.3560 ha         1 2GR       0.125500
     31 H6          -2.3340    -0.0230     3.2540 hn         1 2GR       0.187500
     32 H7          -4.6720    -0.8700     1.8890 h1         1 2GR       0.025200
     33 H8          -4.6650     0.8980     1.8930 h1         1 2GR       0.025200
     34 H9          -4.3750    -0.8300     4.3760 h1         1 2GR      -0.003800
     35 H10         -5.8870    -0.0750     3.8510 h1         1 2GR      -0.003800
     36 H12         -6.9030     1.6700     7.0210 hn         1 2GR       0.297800
     37 H13         -6.1550     3.0890     4.4910 h1         1 2GR       0.026700
     38 H15         -8.9340     2.5010     5.5710 hc         1 2GR       0.014700
     39 H16         -8.5960     3.5720     4.2040 hc         1 2GR       0.014700
     40 H17         -7.8620     0.6260     4.3660 hc         1 2GR       0.006700
     41 H18         -7.5250     1.6980     3.0000 hc         1 2GR       0.006700
@<TRIPOS>BOND
     1     1     2 ar  
     2     1     6 ar  
     3     1    26 1   
     4     2     3 ar  
     5     2    27 1   
     6     3     4 ar  
     7     3    28 1   
     8     4     5 ar  
     9     4    29 1   
    10     5     6 ar  
    11     5    30 1   
    12     6     7 1   
    13     7     8 2   
    14     7     9 1   
    15     9    10 1   
    16     9    31 1   
    17    10    11 1   
    18    10    32 1   
    19    10    33 1   
    20    11    12 1   
    21    11    34 1   
    22    11    35 1   
    23    12    13 1   
    24    13    14 1   
    25    13    15 1   
    26    13    16 1   
    27    16    17 1   
    28    16    36 1   
    29    17    18 1   
    30    17    21 1   
    31    17    37 1   
    32    18    19 1   
    33    18    20 1   
    34    21    22 1   
    35    21    38 1   
    36    21    39 1   
    37    22    23 1   
    38    22    40 1   
    39    22    41 1   
    40    23    24 1   
    41    23    25 1   
@<TRIPOS>SUBSTRUCTURE
     1 2GR         1 TEMP              0 ****  ****    0 ROOT
