@<TRIPOS>MOLECULE
molecule
   27    27     1     0     0
SMALL
bcc


@<TRIPOS>ATOM
      1 C1           0.0000     0.0000     0.0000 c3         1 2GS       0.362900
      2 C2           1.5340     0.0000     0.0000 c3         1 2GS       0.103100
      3 C3           2.0850     0.0000     1.4260 c3         1 2GS       0.105100
      4 C4           1.4160    -1.0980     2.2620 c3         1 2GS       0.123100
      5 C5          -0.1150    -1.1090     2.1350 c3         1 2GS       0.154100
      6 C6          -0.8520    -0.0370     2.9360 c3         1 2GS       0.119400
      7 O1          -0.4490    -0.0780    -1.3520 oh         1 2GS      -0.570800
      8 O2           2.0180    -1.1520    -0.6920 os         1 2GS      -0.381600
      9 O3           1.8510     1.2830     1.9990 oh         1 2GS      -0.594800
     10 O4           1.8290    -0.9900     3.6180 oh         1 2GS      -0.594800
     11 O5          -0.5100    -1.0980     0.7570 os         1 2GS      -0.405600
     12 O6          -2.2430    -0.1750     2.7040 oh         1 2GS      -0.602800
     13 H1          -0.3520     0.9250     0.4410 h2         1 2GS       0.044700
     14 H2           1.8820     0.8910    -0.5080 h1         1 2GS       0.054700
     15 H3           3.1510    -0.1870     1.3900 h1         1 2GS       0.043700
     16 H4           1.7740    -2.0480     1.8860 h1         1 2GS       0.054700
     17 H5          -0.4390    -2.0620     2.5330 h1         1 2GS       0.078700
     18 H61         -0.6440    -0.1640     3.9910 h1         1 2GS       0.041200
     19 H62         -0.5260     0.9450     2.6160 h1         1 2GS       0.041200
     20 H71          3.7540    -1.5920    -1.6980 h1         1 2GS       0.029700
     21 H72          3.8090    -0.1470    -0.6780 h1         1 2GS       0.029700
     22 H73          3.8310    -1.7540     0.0620 h1         1 2GS       0.029700
     23 HO1         -1.2520     0.4070    -1.4460 ho         1 2GS       0.409000
     24 HO3          2.6750     1.7230     2.1320 ho         1 2GS       0.408000
     25 HO4          2.2690    -1.7830     3.8770 ho         1 2GS       0.405000
     26 HO6         -2.7200     0.2520     3.3960 ho         1 2GS       0.401000
     27 C7           3.4370    -1.1620    -0.7550 c3         1 2GS       0.113700
@<TRIPOS>BOND
     1     1    11 1
     2     1     2 1
     3     1     7 1
     4     1    13 1
     5     2     8 1
     6     2     3 1
     7     2    14 1
     8     3     4 1
     9     3     9 1
    10     3    15 1
    11     4    10 1
    12     4     5 1
    13     4    16 1
    14     5    11 1
    15     5     6 1
    16     5    17 1
    17     6    12 1
    18     6    18 1
    19     6    19 1
    20    27     8 1
    21    27    20 1
    22    27    21 1
    23    27    22 1
    24     7    23 1
    25     9    24 1
    26    10    25 1
    27    12    26 1
@<TRIPOS>SUBSTRUCTURE
     1 2GS         1 TEMP              0 ****  ****    0 ROOT
