@<TRIPOS>MOLECULE
2GS
   27    25     1     0     0
SMALL
bcc


@<TRIPOS>ATOM
      1 C1         -2.2020   -0.4630   -0.9230 c         1 2GS      0.647900
      2 C2          2.1980    0.4670    0.2350 c3        1 2GS      0.100400
      3 C3          2.5950    0.0860    1.6630 c3        1 2GS      0.076100
      4 C4          1.6630   -0.9680    2.2960 c3        1 2GS      0.175300
      5 C5          0.2450   -0.5190    2.2910 c2        1 2GS     -0.372200
      6 C6         -0.5650   -0.5690    3.3590 c2        1 2GS      0.076100
      7 O1         -1.0890   -0.9140   -1.5400 oh        1 2GS     -0.610100
      8 O2          1.8310   -0.6560   -0.5520 os        1 2GS     -0.439600
      9 O3          2.6510    1.2500    2.4710 oh        1 2GS     -0.594800
     10 O4          2.1370   -1.2970    3.5910 oh        1 2GS     -0.596800
     11 O5         -2.0790    0.0710    0.1820 o         1 2GS     -0.589000
     12 O6         -1.8800   -0.1970    3.3450 oh        1 2GS     -0.513100
     13 H1          1.2740    1.1080    0.2400 h1        1 2GS      0.057700
     14 H2         -3.1160   -0.6360   -1.5170 h5        1 2GS      0.086200
     15 H3          3.0380    1.0310   -0.2490 h1        1 2GS      0.057700
     16 H4          3.6500   -0.3100    1.6850 h1        1 2GS      0.085700
     17 H5          1.7540   -1.9290    1.7100 h1        1 2GS      0.086700
     18 H61        -0.1330   -0.1940    1.3070 ha        1 2GS      0.148000
     19 H62        -0.2740   -0.9060    4.3690 h4        1 2GS      0.168000
     20 H71         3.4420   -1.9050   -0.0880 h1        1 2GS      0.039700
     21 H72         3.6540   -0.8400   -1.5650 h1        1 2GS      0.039700
     22 H73         2.4680   -2.2460   -1.6110 h1        1 2GS      0.039700
     23 HO1        -0.2920   -0.7570   -0.9990 ho        1 2GS      0.465000
     24 HO3         1.7480    1.5850    2.5500 ho        1 2GS      0.407000
     25 HO4         2.2450   -0.4660    4.0740 ho        1 2GS      0.408000
     26 HO6        -2.1340    0.0520    2.4410 ho        1 2GS      0.438000
     27 C7          2.9290   -1.4510   -0.9720 c3        1 2GS      0.113700
@<TRIPOS>BOND
     1    1    7 1   
     2    1   11 2   
     3    1   14 1   
     4    2    3 1   
     5    2    8 1   
     6    2   13 1   
     7    2   15 1   
     8    3    4 1   
     9    3    9 1   
    10    3   16 1   
    11    4    5 1   
    12    4   10 1   
    13    4   17 1   
    14    5    6 2   
    15    5   18 1   
    16    6   12 1   
    17    6   19 1   
    18    7   23 1   
    19    8   27 1   
    20    9   24 1   
    21   10   25 1   
    22   12   26 1   
    23   20   27 1   
    24   21   27 1   
    25   22   27 1   
@<TRIPOS>SUBSTRUCTURE
     1 2GS         1 TEMP              0 ****  ****    0 ROOT
