@<TRIPOS>MOLECULE
molecule
   56    60     1     0     0
SMALL
bcc


@<TRIPOS>ATOM
      1 C1           0.0000     0.0000     0.0000 ca         1 2GU      -0.068000
      2 C2           1.4010     0.0000     0.0000 ca         1 2GU      -0.329600
      3 C3           2.1460     0.0000     1.1950 ca         1 2GU       0.518200
      4 N1           3.4590    -0.0010     1.1170 nb         1 2GU      -0.774000
      5 C4           4.0870    -0.0010    -0.0570 ca         1 2GU       0.944900
      6 N2           5.4700    -0.0020    -0.0710 nv         1 2GU      -1.004500
      7 N3           3.4430    -0.0020    -1.2090 nb         1 2GU      -0.783000
      8 C5           2.1040    -0.0000    -1.2330 ca         1 2GU       0.487600
      9 C6           1.3880    -0.0010    -2.4400 ca         1 2GU      -0.181300
     10 C7           0.0280    -0.0000    -2.4210 ca         1 2GU      -0.089000
     11 C8          -0.6760    -0.0050    -1.2060 cp         1 2GU      -0.062000
     12 C9          -2.1600    -0.0040    -1.2170 cp         1 2GU      -0.053000
     13 C10         -2.8470     0.0010    -2.4260 ca         1 2GU      -0.076000
     14 C11         -2.8670    -0.0150    -0.0150 ca         1 2GU      -0.074000
     15 C12         -4.2470    -0.0210    -0.0200 ca         1 2GU      -0.175000
     16 C13         -4.9400    -0.0160    -1.2180 ca         1 2GU       0.198900
     17 F1          -6.2910    -0.0200    -1.2160 f          1 2GU      -0.105900
     18 C14         -4.2410     0.0010    -2.4300 ca         1 2GU      -0.188600
     19 C15         -4.9800     0.0070    -3.7090 c          1 2GU       0.674700
     20 O1          -6.1940    -0.0020    -3.7100 o          1 2GU      -0.571100
     21 N4          -4.3050     0.0220    -4.8760 ns         1 2GU      -0.473100
     22 C16         -4.9980    -0.0700    -6.0870 ca         1 2GU       0.086600
     23 C17         -6.2460     0.5230    -6.2190 ca         1 2GU      -0.168000
     24 C18         -4.4370    -0.7490    -7.1600 ca         1 2GU      -0.193000
     25 C19         -5.1180    -0.8320    -8.3590 ca         1 2GU      -0.077000
     26 C20         -6.3630    -0.2450    -8.4930 ca         1 2GU      -0.136300
     27 C21         -6.9330     0.4280    -7.4210 ca         1 2GU       0.091600
     28 N5          -8.1920     1.0210    -7.5550 ns         1 2GU      -0.462100
     29 C22         -8.9900     0.7120    -8.5910 c          1 2GU       0.702500
     30 O2         -10.0340     1.3100    -8.7440 o          1 2GU      -0.630500
     31 C23         -8.6000    -0.3710    -9.5620 c3         1 2GU      -0.142400
     32 C24         -7.0910    -0.3220    -9.8100 c3         1 2GU      -0.015700
     33 C25         -6.6540    -1.5820   -10.5600 c3         1 2GU      -0.082600
     34 C26         -6.7560     0.9120   -10.6500 c3         1 2GU      -0.082600
     35 H1          -0.5470    -0.0040     0.9350 ha         1 2GU       0.137000
     36 H2           1.6480     0.0000     2.1580 h4         1 2GU       0.033100
     37 H3           5.9770     0.5010     0.6310 hn         1 2GU       0.450300
     38 H4           5.9630    -0.5120    -0.7760 hn         1 2GU       0.450300
     39 H5           1.9170     0.0040    -3.3850 ha         1 2GU       0.154000
     40 H6          -0.5190    -0.0040    -3.3550 ha         1 2GU       0.131000
     41 H7          -2.3010     0.0140    -3.3620 ha         1 2GU       0.135000
     42 H8          -2.3310    -0.0190     0.9270 ha         1 2GU       0.142000
     43 H9          -4.7910    -0.0290     0.9180 ha         1 2GU       0.155000
     44 H10         -3.3040    -0.0090    -4.8720 hn         1 2GU       0.323500
     45 H11         -6.6500     1.1180    -5.4100 ha         1 2GU       0.168000
     46 H12         -3.4570    -1.2010    -7.0620 ha         1 2GU       0.129000
     47 H13         -4.6780    -1.3630    -9.1950 ha         1 2GU       0.140000
     48 H14         -8.5020     1.6830    -6.8720 hn         1 2GU       0.339500
     49 H15         -9.1130    -0.1980   -10.5000 hc         1 2GU       0.080700
     50 H16         -8.8510    -1.3330    -9.1300 hc         1 2GU       0.080700
     51 H17         -7.3050    -1.7400   -11.4110 hc         1 2GU       0.040700
     52 H18         -5.6340    -1.4610   -10.9050 hc         1 2GU       0.040700
     53 H19         -6.7120    -2.4360    -9.8970 hc         1 2GU       0.040700
     54 H20         -7.3240     0.8860   -11.5720 hc         1 2GU       0.040700
     55 H21         -5.6970     0.9170   -10.8780 hc         1 2GU       0.040700
     56 H22         -7.0100     1.8070   -10.0950 hc         1 2GU       0.040700
@<TRIPOS>BOND
     1    10     9 ar  
     2    10    11 ar  
     3     9     8 ar  
     4    20    19 2   
     5    15    14 ar  
     6    15    16 ar  
     7    17    16 1   
     8    14    12 ar  
     9    16    18 ar  
    10    12    13 ar  
    11    12    11 1   
    12    18    13 ar  
    13    18    19 1   
    14    11     1 ar  
    15    19    21 1   
    16     8     7 ar  
    17     8     2 ar  
    18     7     5 ar  
    19    24    25 ar  
    20    24    22 ar  
    21    34    32 1   
    22    25    26 ar  
    23    21    22 1   
    24     1     2 ar  
    25    22    23 ar  
    26     2     3 ar  
    27     5     6 1   
    28     5     4 ar  
    29    26    32 1   
    30    26    27 ar  
    31    23    27 ar  
    32     3     4 ar  
    33    32    31 1   
    34    32    33 1   
    35    27    28 1   
    36    31    29 1   
    37    28    29 1   
    38    29    30 2   
    39     1    35 1   
    40     3    36 1   
    41     6    37 1   
    42     6    38 1   
    43     9    39 1   
    44    10    40 1   
    45    13    41 1   
    46    14    42 1   
    47    15    43 1   
    48    21    44 1   
    49    23    45 1   
    50    24    46 1   
    51    25    47 1   
    52    28    48 1   
    53    31    49 1   
    54    31    50 1   
    55    33    51 1   
    56    33    52 1   
    57    33    53 1   
    58    34    54 1   
    59    34    55 1   
    60    34    56 1   
@<TRIPOS>SUBSTRUCTURE
     1 2GU         1 TEMP              0 ****  ****    0 ROOT
