@<TRIPOS>MOLECULE
2GV
   56    60     1     0     0
SMALL
bcc


@<TRIPOS>ATOM
      1 C12          0.0000     0.0000     0.0000 ca         1 2GV      -0.091000
      2 C13          1.3830     0.0000     0.0000 ca         1 2GV      -0.094500
      3 C14          2.0740     0.0000     1.1970 ca         1 2GV      -0.093000
      4 C15          1.3840    -0.0000     2.3940 ca         1 2GV      -0.094500
      5 C16          0.0010     0.0010     2.3950 ca         1 2GV      -0.091000
      6 C17         -0.6900    -0.0000     1.1970 ca         1 2GV      -0.116300
      7 C7          -2.1980     0.0060     1.1980 c3         1 2GV       0.033000
      8 C8          -2.7440    -1.4130     1.4450 c3         1 2GV       0.148800
      9 C9          -1.5950    -2.4100     1.6120 c3         1 2GV      -0.012600
     10 C10         -3.6620    -1.8420     0.2980 c3         1 2GV      -0.012600
     11 O1          -3.5000    -1.2890     2.6840 os         1 2GV      -0.361900
     12 C11         -3.4340    -0.0270     3.1230 c          1 2GV       0.770600
     13 O2          -3.9800     0.3510     4.1400 o          1 2GV      -0.675500
     14 N2          -2.7100     0.7820     2.3370 n          1 2GV      -0.014000
     15 C18         -1.6150     2.8480     1.7350 ca         1 2GV      -0.145000
     16 C19         -2.4810     2.1440     2.5630 ca         1 2GV      -0.055400
     17 C20         -3.1190     2.7900     3.6150 ca         1 2GV      -0.145000
     18 C21         -2.8950     4.1320     3.8390 ca         1 2GV      -0.082500
     19 C5          -2.0260     4.8400     3.0100 cp         1 2GV      -0.027000
     20 C22         -1.3820     4.1880     1.9590 ca         1 2GV      -0.082500
     21 C1          -1.7830     6.2840     3.2490 cp         1 2GV      -0.233300
     22 C23         -0.9180     7.0020     2.4190 ca         1 2GV       0.025000
     23 C24         -0.7230     8.3570     2.6840 cp         1 2GV      -0.360800
     24 C25         -1.3970     8.9420     3.7660 ca         1 2GV       0.544200
     25 N3          -2.2080     8.2220     4.5260 nb         1 2GV      -0.663000
     26 C26         -2.4190     6.9410     4.3000 ca         1 2GV       0.476200
     27 N1           0.0740     9.0900     0.5160 nb         1 2GV      -0.624000
     28 C2           0.8660     9.7990    -0.2690 ca         1 2GV       0.446200
     29 C3           1.8210    10.6270     0.3030 ca         1 2GV      -0.358600
     30 C4           1.9090    10.6810     1.6860 ca         1 2GV       0.446200
     31 N5           1.0850     9.9470     2.4140 nb         1 2GV      -0.624000
     32 C6           0.1830     9.1650     1.8360 cp         1 2GV       0.683500
     33 N4          -1.2130    10.2880     4.0420 nv         1 2GV      -0.517500
     34 H1          -0.5420    -0.0010    -0.9380 ha         1 2GV       0.113000
     35 H2           1.9250     0.0000    -0.9380 ha         1 2GV       0.107500
     36 H3           3.1580    -0.0000     1.1970 ha         1 2GV       0.105000
     37 H4           1.9250     0.0000     3.3320 ha         1 2GV       0.107500
     38 H5          -0.5400     0.0010     3.3330 ha         1 2GV       0.113000
     39 H6          -2.5830     0.4030     0.2660 h1         1 2GV       0.054700
     40 H7          -1.0310    -2.1650     2.5040 hc         1 2GV       0.021867
     41 H8          -1.9960    -3.4120     1.7020 hc         1 2GV       0.021867
     42 H9          -0.9430    -2.3580     0.7490 hc         1 2GV       0.021867
     43 H10         -4.1180    -2.7950     0.5380 hc         1 2GV       0.021867
     44 H11         -3.0810    -1.9390    -0.6120 hc         1 2GV       0.021867
     45 H12         -4.4350    -1.0970     0.1550 hc         1 2GV       0.021867
     46 H14         -3.7940     2.2390     4.2590 ha         1 2GV       0.144000
     47 H15         -3.3940     4.6360     4.6580 ha         1 2GV       0.112000
     48 H16         -0.7070     4.7360     1.3140 ha         1 2GV       0.112000
     49 H17         -0.4130     6.5190     1.5920 ha         1 2GV       0.119000
     50 H18         -3.0900     6.3880     4.9470 h4         1 2GV      -0.014900
     51 H19          0.7720     9.7340    -1.3470 h4         1 2GV      -0.013900
     52 H20          2.4840    11.2190    -0.3170 ha         1 2GV       0.124000
     53 H21          2.6430    11.3170     2.1640 h4         1 2GV      -0.013900
     54 H22         -1.6900    10.7100     4.8140 hn         1 2GV       0.277800
     55 H23         -0.6040    10.8370     3.4690 hn         1 2GV       0.277800
     56 H13         -1.1140     2.3410     0.9190 ha         1 2GV       0.144000
@<TRIPOS>BOND
     1     1     2 ar  
     2     1     6 ar  
     3     1    34 1   
     4     2     3 ar  
     5     2    35 1   
     6     3     4 ar  
     7     3    36 1   
     8     4     5 ar  
     9     4    37 1   
    10     5     6 ar  
    11     5    38 1   
    12     6     7 1   
    13     7     8 1   
    14     7    14 1   
    15     7    39 1   
    16     8     9 1   
    17     8    10 1   
    18     8    11 1   
    19     9    40 1   
    20     9    41 1   
    21     9    42 1   
    22    10    43 1   
    23    10    44 1   
    24    10    45 1   
    25    11    12 1   
    26    12    13 2   
    27    12    14 1   
    28    14    16 1   
    29    15    16 ar  
    30    15    20 ar  
    31    15    56 1   
    32    16    17 ar  
    33    17    18 ar  
    34    17    46 1   
    35    18    19 ar  
    36    18    47 1   
    37    19    20 ar  
    38    19    21 1   
    39    20    48 1   
    40    21    22 ar  
    41    21    26 ar  
    42    22    23 ar  
    43    22    49 1   
    44    23    24 ar  
    45    23    32 1   
    46    24    25 ar  
    47    24    33 1   
    48    25    26 ar  
    49    26    50 1   
    50    27    28 ar  
    51    27    32 ar  
    52    28    29 ar  
    53    28    51 1   
    54    29    30 ar  
    55    29    52 1   
    56    30    31 ar  
    57    30    53 1   
    58    31    32 ar  
    59    33    54 1   
    60    33    55 1   
@<TRIPOS>SUBSTRUCTURE
     1 2GV         1 TEMP              0 ****  ****    0 ROOT
