@<TRIPOS>MOLECULE
2GY
   62    66     1     0     0
SMALL
bcc


@<TRIPOS>ATOM
      1 C5         -0.0850    0.0830   -0.1270 ca        1 2GY     -0.114000
      2 C7          1.2580   -0.0520   -0.4690 ca        1 2GY     -0.132000
      3 C8          2.2060   -0.3320    0.5160 ca        1 2GY     -0.122000
      4 C9          1.8040   -0.4780    1.8430 ca        1 2GY     -0.132000
      5 C10         0.4590   -0.3490    2.1890 ca        1 2GY     -0.114000
      6 C12        -0.4950   -0.0680    1.2050 ca        1 2GY     -0.091300
      7 C13        -1.9560    0.0920    1.5190 c3        1 2GY      0.109000
      8 C14        -2.7420   -1.2740    1.5300 c3        1 2GY      0.145800
      9 C15        -1.8550   -2.4990    1.5640 c3        1 2GY     -0.101100
     10 C16        -3.7370   -1.3380    0.3870 c3        1 2GY     -0.101100
     11 O1         -3.5030   -1.2490    2.7760 os        1 2GY     -0.403900
     12 C11        -3.2180   -0.0900    3.4820 c         1 2GY      0.807600
     13 O2         -3.8080    0.0660    4.5530 o         1 2GY     -0.598500
     14 N2         -2.2280    0.6770    2.8360 n         1 2GY     -0.450800
     15 C17        -2.1780    2.1220    2.9860 c3        1 2GY      0.110700
     16 C18        -3.4530    2.8440    2.5150 c3        1 2GY     -0.097900
     17 C19        -3.2860    4.3440    2.6200 c3        1 2GY     -0.070400
     18 C20        -2.9600    4.7630    4.0490 c3        1 2GY     -0.007400
     19 C21        -1.7110    4.0340    4.5340 c3        1 2GY     -0.070400
     20 C22        -1.8760    2.5340    4.4370 c3        1 2GY     -0.097900
     21 C1         -2.7950    6.2400    4.1520 ca        1 2GY     -0.255600
     22 C23        -3.6320    7.0070    4.9640 ca        1 2GY     -0.014000
     23 C24        -3.4590    8.3930    5.0430 cp        1 2GY     -0.317800
     24 C25        -2.3940    9.0020    4.3030 ca        1 2GY      0.681200
     25 N3         -1.5830    8.2420    3.4850 nb        1 2GY     -0.737000
     26 C26        -1.7910    6.9250    3.4340 ca        1 2GY      0.458200
     27 N1         -5.0080   10.2650    5.3440 nb        1 2GY     -0.700000
     28 C2         -5.8760   10.9280    6.1320 ca        1 2GY      0.432700
     29 C3         -6.1480   10.5430    7.4570 ca        1 2GY     -0.370600
     30 C4         -5.4580    9.4130    7.9340 ca        1 2GY      0.432700
     31 N5         -4.5850    8.7200    7.1800 nb        1 2GY     -0.700000
     32 C6         -4.3850    9.1720    5.8960 cp        1 2GY      0.718500
     33 N4         -2.0790   10.3500    4.4570 nh        1 2GY     -0.929500
     34 H1         -0.8270    0.3080   -0.9080 ha        1 2GY      0.139500
     35 H2          1.5710    0.0660   -1.5160 ha        1 2GY      0.135000
     36 H3          3.2680   -0.4340    0.2460 ha        1 2GY      0.134000
     37 H4          2.5490   -0.6970    2.6230 ha        1 2GY      0.135000
     38 H5          0.1550   -0.4680    3.2410 ha        1 2GY      0.139500
     39 H6         -2.4090    0.7540    0.7180 h1        1 2GY      0.057700
     40 H7         -1.1300   -2.4320    2.4110 hc        1 2GY      0.053700
     41 H8         -1.2900   -2.5820    0.6060 hc        1 2GY      0.053700
     42 H9         -2.4830   -3.4120    1.7040 hc        1 2GY      0.053700
     43 H10        -4.4430   -0.4750    0.4300 hc        1 2GY      0.053700
     44 H11        -3.1900   -1.3200   -0.5860 hc        1 2GY      0.053700
     45 H12        -4.3310   -2.2810    0.4570 hc        1 2GY      0.053700
     46 H13        -1.3160    2.4670    2.3370 h1        1 2GY      0.065700
     47 H14        -3.6780    2.5720    1.4510 hc        1 2GY      0.057700
     48 H15        -4.3200    2.5110    3.1460 hc        1 2GY      0.057700
     49 H16        -4.2320    4.8460    2.2910 hc        1 2GY      0.046700
     50 H17        -2.4660    4.6830    1.9330 hc        1 2GY      0.046700
     51 H18        -3.8210    4.4460    4.7070 hc        1 2GY      0.060700
     52 H19        -0.8260    4.3620    3.9270 hc        1 2GY      0.046700
     53 H20        -1.5090    4.3140    5.6010 hc        1 2GY      0.046700
     54 H21        -2.7110    2.1900    5.1040 hc        1 2GY      0.057700
     55 H22        -0.9350    2.0340    4.7850 hc        1 2GY      0.057700
     56 H23        -4.4340    6.5210    5.5440 ha        1 2GY      0.150000
     57 H24        -1.1060    6.3710    2.7630 h4        1 2GY      0.021100
     58 H26        -6.8580   11.0930    8.0840 ha        1 2GY      0.157000
     59 H27        -5.6060    9.0420    8.9640 h4        1 2GY      0.029600
     60 H28        -2.8310   10.9570    4.6790 hn        1 2GY      0.419300
     61 H29        -1.4200   10.7260    3.8120 hn        1 2GY      0.419300
     62 H25        -6.3730   11.8020    5.6730 h4        1 2GY      0.029600
@<TRIPOS>BOND
     1    1    2 ar  
     2    1    6 ar  
     3    1   34 1   
     4    2    3 ar  
     5    2   35 1   
     6    3    4 ar  
     7    3   36 1   
     8    4    5 ar  
     9    4   37 1   
    10    5    6 ar  
    11    5   38 1   
    12    6    7 1   
    13    7    8 1   
    14    7   14 1   
    15    7   39 1   
    16    8    9 1   
    17    8   10 1   
    18    8   11 1   
    19    9   40 1   
    20    9   41 1   
    21    9   42 1   
    22   10   43 1   
    23   10   44 1   
    24   10   45 1   
    25   11   12 1   
    26   12   13 2   
    27   12   14 1   
    28   14   15 1   
    29   15   16 1   
    30   15   20 1   
    31   15   46 1   
    32   16   17 1   
    33   16   47 1   
    34   16   48 1   
    35   17   18 1   
    36   17   49 1   
    37   17   50 1   
    38   18   19 1   
    39   18   21 1   
    40   18   51 1   
    41   19   20 1   
    42   19   52 1   
    43   19   53 1   
    44   20   54 1   
    45   20   55 1   
    46   21   22 ar  
    47   21   26 ar  
    48   22   23 ar  
    49   22   56 1   
    50   23   24 ar  
    51   23   32 1   
    52   24   25 ar  
    53   24   33 1   
    54   25   26 ar  
    55   26   57 1   
    56   27   28 ar  
    57   27   32 ar  
    58   28   29 ar  
    59   28   62 1   
    60   29   30 ar  
    61   29   58 1   
    62   30   31 ar  
    63   30   59 1   
    64   31   32 ar  
    65   33   60 1   
    66   33   61 1   
@<TRIPOS>SUBSTRUCTURE
     1 2GY         1 TEMP              0 ****  ****    0 ROOT
