@<TRIPOS>MOLECULE
molecule
   62    66     1     0     0
SMALL
bcc


@<TRIPOS>ATOM
      1 C5           0.0000     0.0000     0.0000 ca         1 2GY      -0.117500
      2 C7           1.3830     0.0000     0.0000 ca         1 2GY      -0.127500
      3 C8           2.0730     0.0000     1.1970 ca         1 2GY      -0.122000
      4 C9           1.3830     0.0000     2.3940 ca         1 2GY      -0.127500
      5 C10          0.0000     0.0020     2.3940 ca         1 2GY      -0.117500
      6 C12         -0.6910     0.0070     1.1970 ca         1 2GY      -0.106300
      7 C13         -2.1980     0.0080     1.1970 c3         1 2GY       0.124000
      8 C14         -2.7400    -1.4010     1.5060 c3         1 2GY       0.137800
      9 C15         -1.5870    -2.3850     1.7200 c3         1 2GY      -0.093600
     10 C16         -3.6550    -1.8830     0.3780 c3         1 2GY      -0.093600
     11 O1          -3.4970    -1.2270     2.7390 os         1 2GY      -0.374900
     12 C11         -3.4350     0.0530     3.1220 c          1 2GY       0.829600
     13 O2          -3.9810     0.4730     4.1230 o          1 2GY      -0.636500
     14 N2          -2.7140     0.8340     2.2990 n          1 2GY      -0.518800
     15 C17         -2.4790     2.2700     2.4750 c3         1 2GY       0.158700
     16 C18         -3.8190     3.0080     2.4770 c3         1 2GY      -0.103400
     17 C19         -3.5740     4.5080     2.6600 c3         1 2GY      -0.071400
     18 C20         -2.8570     4.7480     3.9900 c3         1 2GY      -0.015400
     19 C21         -1.5180     4.0090     3.9890 c3         1 2GY      -0.071400
     20 C22         -1.7630     2.5100     3.8050 c3         1 2GY      -0.103400
     21 C1          -2.6160     6.2240     4.1720 ca         1 2GY      -0.276600
     22 C23         -3.1570     6.8920     5.2580 ca         1 2GY      -0.017000
     23 C24         -2.9070     8.2600     5.3870 cp         1 2GY      -0.240800
     24 C25         -2.1230     8.9000     4.4160 ca         1 2GY       0.722200
     25 N3          -1.6310     8.2160     3.3960 nb         1 2GY      -0.764000
     26 C26         -1.8490     6.9230     3.2570 ca         1 2GY       0.488200
     27 N1          -5.3800    10.1100     5.3600 nb         1 2GY      -0.727500
     28 C2          -6.0190    10.8210     6.2730 ca         1 2GY       0.446700
     29 C3          -5.9640    10.4220     7.6010 ca         1 2GY      -0.392600
     30 C4          -5.2370     9.2850     7.9230 ca         1 2GY       0.446700
     31 N5          -4.6220     8.6200     6.9620 nb         1 2GY      -0.727500
     32 C6          -4.6930     9.0270     5.7010 cp         1 2GY       0.668500
     33 N4          -1.8630    10.2570     4.5250 nv         1 2GY      -0.988500
     34 H1          -0.5420     0.0020    -0.9380 ha         1 2GY       0.137500
     35 H2           1.9250    -0.0030    -0.9380 ha         1 2GY       0.134000
     36 H3           3.1560    -0.0000     1.1970 ha         1 2GY       0.133000
     37 H4           1.9240    -0.0020     3.3320 ha         1 2GY       0.134000
     38 H5          -0.5410     0.0050     3.3330 ha         1 2GY       0.137500
     39 H6          -2.5840     0.3610     0.2490 h1         1 2GY       0.072700
     40 H7          -1.0790    -2.1500     2.6470 hc         1 2GY       0.053200
     41 H8          -0.8880    -2.3060     0.8950 hc         1 2GY       0.053200
     42 H9          -1.9770    -3.3940     1.7670 hc         1 2GY       0.053200
     43 H10         -4.0930    -2.8360     0.6500 hc         1 2GY       0.053200
     44 H11         -3.0780    -1.9970    -0.5320 hc         1 2GY       0.053200
     45 H12         -4.4430    -1.1570     0.2170 hc         1 2GY       0.053200
     46 H13         -1.8650     2.6420     1.6640 h1         1 2GY       0.062700
     47 H14         -4.3240     2.8390     1.5340 hc         1 2GY       0.062700
     48 H15         -4.4320     2.6420     3.2920 hc         1 2GY       0.062700
     49 H16         -2.9570     4.8730     1.8480 hc         1 2GY       0.045700
     50 H17         -4.5230     5.0300     2.6640 hc         1 2GY       0.045700
     51 H18         -3.4720     4.3760     4.8010 hc         1 2GY       0.068700
     52 H19         -0.9050     4.3760     3.1750 hc         1 2GY       0.045700
     53 H20         -1.0130     4.1780     4.9320 hc         1 2GY       0.045700
     54 H21         -0.8130     1.9880     3.8020 hc         1 2GY       0.062700
     55 H22         -2.3790     2.1430     4.6180 hc         1 2GY       0.062700
     56 H23         -3.7580     6.3660     5.9890 ha         1 2GY       0.166000
     57 H24         -1.4270     6.4000     2.4070 h4         1 2GY       0.027100
     58 H26         -6.4780    10.9870     8.3700 ha         1 2GY       0.143000
     59 H27         -5.1750     8.9470     8.9510 h4         1 2GY       0.027100
     60 H28         -1.5160    10.7650     3.7360 hn         1 2GY       0.445800
     61 H29         -2.0680    10.7390     5.3780 hn         1 2GY       0.445800
     62 H25         -6.5780    11.7040     5.9880 h4         1 2GY       0.027100
@<TRIPOS>BOND
     1    10     8 1   
     2    20    19 1   
     3    20    15 1   
     4    19    18 1   
     5     8    11 1   
     6     8     9 1   
     7     8     7 1   
     8    26    25 ar  
     9    26    21 ar  
    10    11    12 1   
    11    25    24 ar  
    12    12    13 2   
    13    12    14 1   
    14    15    14 1   
    15    15    16 1   
    16    14     7 1   
    17     7     6 1   
    18    18    21 1   
    19    18    17 1   
    20    21    22 ar  
    21    24    33 1   
    22    24    23 ar  
    23    22    23 ar  
    24    23    32 1   
    25     6     1 ar  
    26     6     5 ar  
    27    16    17 1   
    28     1     2 ar  
    29    31    32 ar  
    30    31    30 ar  
    31    32    27 ar  
    32    30    29 ar  
    33     5     4 ar  
    34    27    28 ar  
    35     2     3 ar  
    36    29    28 ar  
    37     4     3 ar  
    38     1    34 1   
    39     2    35 1   
    40     3    36 1   
    41     4    37 1   
    42     5    38 1   
    43     7    39 1   
    44     9    40 1   
    45     9    41 1   
    46     9    42 1   
    47    10    43 1   
    48    10    44 1   
    49    10    45 1   
    50    15    46 1   
    51    16    47 1   
    52    16    48 1   
    53    17    49 1   
    54    17    50 1   
    55    18    51 1   
    56    19    52 1   
    57    19    53 1   
    58    20    54 1   
    59    20    55 1   
    60    22    56 1   
    61    26    57 1   
    62    28    62 1   
    63    29    58 1   
    64    30    59 1   
    65    33    60 1   
    66    33    61 1   
@<TRIPOS>SUBSTRUCTURE
     1 2GY         1 TEMP              0 ****  ****    0 ROOT
