@<TRIPOS>MOLECULE
2H1
   56    60     1     0     0
SMALL
bcc


@<TRIPOS>ATOM
      1 CAL          0.0000     0.0000     0.0000 c3         1 2H1      -0.011100
      2 CAK          1.5310     0.0000     0.0000 c3         1 2H1      -0.032000
      3 CAM          2.0410     0.0000     1.4420 c3         1 2H1      -0.011100
      4 NAG          2.0180    -1.1970    -0.6900 na         1 2H1       0.380200
      5 NAH          1.7490    -2.5160    -0.3100 nc         1 2H1      -0.619100
      6 C4           2.8010    -1.1970    -1.8070 ca         1 2H1       0.339800
      7 N3           3.3390    -0.2470    -2.5710 nb         1 2H1      -0.684000
      8 C2           4.0710    -0.5600    -3.6170 ca         1 2H1       0.699900
      9 N1           4.3140    -1.8100    -3.9680 nb         1 2H1      -0.730000
     10 C6           3.8220    -2.8280    -3.2690 ca         1 2H1       0.614200
     11 NAJ          4.0800    -4.1330    -3.6420 nv         1 2H1      -0.567500
     12 C5           3.0320    -2.5440    -2.1430 ca         1 2H1      -0.537500
     13 CAI          2.3340    -3.3470    -1.1400 cd         1 2H1       0.480500
     14 CAN          2.2930    -4.8270    -1.0730 ca         1 2H1      -0.104900
     15 CAS          3.4560    -5.5560    -1.2570 ca         1 2H1      -0.075000
     16 CAO          1.0770    -5.4810    -0.8180 ca         1 2H1      -0.064000
     17 CAP          1.0150    -6.8370    -0.7510 ca         1 2H1      -0.144600
     18 CAX         -0.3020    -7.5160    -0.4740 c3         1 2H1       0.071200
     19 CAQ          2.1760    -7.6060    -0.9390 ca         1 2H1       0.426600
     20 NAT          2.1300    -8.9420    -0.8770 nb         1 2H1      -0.671000
     21 CAR          3.4090    -6.9550    -1.1930 ca         1 2H1      -0.188300
     22 CAW          4.5700    -7.7330    -1.3810 ca         1 2H1      -0.023000
     23 CAV          4.4570    -9.0890    -1.3110 ca         1 2H1      -0.234300
     24 CAU          3.2100    -9.6730    -1.0520 ca         1 2H1       0.635600
     25 OAY          3.1140   -11.0230    -0.9800 os         1 2H1      -0.423100
     26 CAZ          1.8200   -11.5680    -0.7140 c3         1 2H1       0.272700
     27 CBA          1.9070   -13.0710    -0.6700 ca         1 2H1      -0.116300
     28 CBB          1.7310   -13.8080    -1.8270 ca         1 2H1      -0.075500
     29 CBC          1.8110   -15.1880    -1.7870 ca         1 2H1      -0.106000
     30 CBD          2.0680   -15.8300    -0.5910 ca         1 2H1      -0.091000
     31 CBE          2.2460   -15.0940     0.5660 ca         1 2H1      -0.106000
     32 CBF          2.1700   -13.7140     0.5250 ca         1 2H1      -0.075500
     33 H1          -0.3610     0.9320     0.4180 hc         1 2H1       0.015533
     34 H2          -0.3610    -0.1040    -1.0160 hc         1 2H1       0.015533
     35 H3          -0.3610    -0.8280     0.5980 hc         1 2H1       0.015533
     36 H4           1.8920     0.8840    -0.5110 h1         1 2H1       0.057700
     37 H5           3.1190    -0.1030     1.4440 hc         1 2H1       0.015533
     38 H6           1.7660     0.9320     1.9220 hc         1 2H1       0.015533
     39 H7           1.5980    -0.8280     1.9820 hc         1 2H1       0.015533
     40 H8           4.4920     0.2390    -4.2150 h5         1 2H1      -0.004900
     41 H9           3.3300    -4.7930    -3.7050 hn         1 2H1       0.282300
     42 H10          5.0080    -4.4060    -3.8970 hn         1 2H1       0.282300
     43 H11          4.4110    -5.0470    -1.3090 ha         1 2H1       0.119000
     44 H12          0.1770    -4.8960    -0.6720 ha         1 2H1       0.120000
     45 H13         -1.0770    -6.7670    -0.3570 hc         1 2H1       0.011700
     46 H14         -0.2240    -8.0990     0.4350 hc         1 2H1       0.011700
     47 H15         -0.5530    -8.1690    -1.3010 hc         1 2H1       0.011700
     48 H16          5.5260    -7.2660    -1.5800 ha         1 2H1       0.111000
     49 H17          5.3300    -9.7150    -1.4510 ha         1 2H1       0.125000
     50 H18          1.4620   -11.1990     0.2400 h1         1 2H1       0.013700
     51 H19          1.1340   -11.2690    -1.4970 h1         1 2H1       0.013700
     52 H20          1.5290   -13.3040    -2.7640 ha         1 2H1       0.106000
     53 H21          1.6720   -15.7650    -2.6930 ha         1 2H1       0.103500
     54 H22          2.1290   -16.9110    -0.5600 ha         1 2H1       0.102000
     55 H23          2.4500   -15.5980     1.5030 ha         1 2H1       0.103500
     56 H24          2.3080   -13.1370     1.4310 ha         1 2H1       0.106000
@<TRIPOS>BOND
     1     1     2 1   
     2     1    33 1   
     3     1    34 1   
     4     1    35 1   
     5     2     3 1   
     6     2     4 1   
     7     2    36 1   
     8     3    37 1   
     9     3    38 1   
    10     3    39 1   
    11     4     5 1   
    12     4     6 1   
    13     5    13 2   
    14     6     7 ar  
    15     6    12 ar  
    16     7     8 ar  
    17     8     9 ar  
    18     8    40 1   
    19     9    10 ar  
    20    10    11 1   
    21    10    12 ar  
    22    11    41 1   
    23    11    42 1   
    24    12    13 1   
    25    13    14 1   
    26    14    15 ar  
    27    14    16 ar  
    28    15    21 ar  
    29    15    43 1   
    30    16    17 ar  
    31    16    44 1   
    32    17    18 1   
    33    17    19 ar  
    34    18    45 1   
    35    18    46 1   
    36    18    47 1   
    37    19    20 ar  
    38    19    21 ar  
    39    20    24 ar  
    40    21    22 ar  
    41    22    23 ar  
    42    22    48 1   
    43    23    24 ar  
    44    23    49 1   
    45    24    25 1   
    46    25    26 1   
    47    26    27 1   
    48    26    50 1   
    49    26    51 1   
    50    27    28 ar  
    51    27    32 ar  
    52    28    29 ar  
    53    28    52 1   
    54    29    30 ar  
    55    29    53 1   
    56    30    31 ar  
    57    30    54 1   
    58    31    32 ar  
    59    31    55 1   
    60    32    56 1   
@<TRIPOS>SUBSTRUCTURE
     1 2H1         1 TEMP              0 ****  ****    0 ROOT
