@<TRIPOS>MOLECULE
molecule
   56    60     1     0     0
SMALL
bcc


@<TRIPOS>ATOM
      1 CAL          0.0000     0.0000     0.0000 c3         1 2H1      -0.107100
      2 CAK          1.5310     0.0000     0.0000 c3         1 2H1       0.085000
      3 CAM          2.0410     0.0000     1.4420 c3         1 2H1      -0.107100
      4 NAG          2.0180    -1.1970    -0.6900 na         1 2H1      -0.025800
      5 NAH          1.7490    -2.5160    -0.3100 nc         1 2H1      -0.490100
      6 C4           2.8010    -1.1970    -1.8070 ca         1 2H1       0.527800
      7 N3           3.3390    -0.2470    -2.5710 nb         1 2H1      -0.798000
      8 C2           4.0710    -0.5600    -3.6170 ca         1 2H1       0.746900
      9 N1           4.3140    -1.8100    -3.9680 nb         1 2H1      -0.826000
     10 C6           3.8220    -2.8280    -3.2690 ca         1 2H1       0.788200
     11 NAJ          4.0800    -4.1330    -3.6420 nv         1 2H1      -1.032500
     12 C5           3.0320    -2.5440    -2.1430 ca         1 2H1      -0.522500
     13 CAI          2.3340    -3.3470    -1.1400 cd         1 2H1       0.443500
     14 CAN          2.2930    -4.8270    -1.0730 ca         1 2H1      -0.108900
     15 CAS          3.4560    -5.5560    -1.2570 ca         1 2H1      -0.082000
     16 CAO          1.0770    -5.4810    -0.8180 ca         1 2H1      -0.088000
     17 CAP          1.0150    -6.8370    -0.7510 ca         1 2H1      -0.137600
     18 CAX         -0.3020    -7.5160    -0.4740 c3         1 2H1      -0.034800
     19 CAQ          2.1760    -7.6060    -0.9390 ca         1 2H1       0.468600
     20 NAT          2.1300    -8.9420    -0.8770 nb         1 2H1      -0.780000
     21 CAR          3.4090    -6.9550    -1.1930 ca         1 2H1      -0.194300
     22 CAW          4.5700    -7.7330    -1.3810 ca         1 2H1      -0.052000
     23 CAV          4.4570    -9.0890    -1.3110 ca         1 2H1      -0.256300
     24 CAU          3.2100    -9.6730    -1.0520 ca         1 2H1       0.674600
     25 OAY          3.1140   -11.0230    -0.9800 os         1 2H1      -0.435100
     26 CAZ          1.8200   -11.5680    -0.7140 c3         1 2H1       0.194700
     27 CBA          1.9070   -13.0710    -0.6700 ca         1 2H1      -0.100300
     28 CBB          1.7310   -13.8080    -1.8270 ca         1 2H1      -0.103000
     29 CBC          1.8110   -15.1880    -1.7870 ca         1 2H1      -0.133000
     30 CBD          2.0680   -15.8300    -0.5910 ca         1 2H1      -0.117000
     31 CBE          2.2460   -15.0940     0.5660 ca         1 2H1      -0.133000
     32 CBF          2.1700   -13.7140     0.5250 ca         1 2H1      -0.103000
     33 H1          -0.3610     0.9320     0.4180 hc         1 2H1       0.048533
     34 H2          -0.3610    -0.1040    -1.0160 hc         1 2H1       0.048533
     35 H3          -0.3610    -0.8280     0.5980 hc         1 2H1       0.048533
     36 H4           1.8920     0.8840    -0.5110 h1         1 2H1       0.086700
     37 H5           3.1190    -0.1030     1.4440 hc         1 2H1       0.048533
     38 H6           1.7660     0.9320     1.9220 hc         1 2H1       0.048533
     39 H7           1.5980    -0.8280     1.9820 hc         1 2H1       0.048533
     40 H8           4.4920     0.2390    -4.2150 h5         1 2H1       0.060100
     41 H9           3.3300    -4.7930    -3.7050 hn         1 2H1       0.446300
     42 H10          5.0080    -4.4060    -3.8970 hn         1 2H1       0.446300
     43 H11          4.4110    -5.0470    -1.3090 ha         1 2H1       0.147000
     44 H12          0.1770    -4.8960    -0.6720 ha         1 2H1       0.148000
     45 H13         -1.0770    -6.7670    -0.3570 hc         1 2H1       0.047367
     46 H14         -0.2240    -8.0990     0.4350 hc         1 2H1       0.047367
     47 H15         -0.5530    -8.1690    -1.3010 hc         1 2H1       0.047367
     48 H16          5.5260    -7.2660    -1.5800 ha         1 2H1       0.145000
     49 H17          5.3300    -9.7150    -1.4510 ha         1 2H1       0.153000
     50 H18          1.4620   -11.1990     0.2400 h1         1 2H1       0.054700
     51 H19          1.1340   -11.2690    -1.4970 h1         1 2H1       0.054700
     52 H20          1.5290   -13.3040    -2.7640 ha         1 2H1       0.133500
     53 H21          1.6720   -15.7650    -2.6930 ha         1 2H1       0.132000
     54 H22          2.1290   -16.9110    -0.5600 ha         1 2H1       0.130000
     55 H23          2.4500   -15.5980     1.5030 ha         1 2H1       0.132000
     56 H24          2.3080   -13.1370     1.4310 ha         1 2H1       0.133500
@<TRIPOS>BOND
     1    11    10 1
     2     9    10 ar
     3     9     8 ar
     4    10    12 ar
     5     8     7 ar
     6    26    25 1
     7    26    27 1
     8    25    24 1
     9    12     6 ar
    10    12    13 1
    11    24    20 ar
    12    24    23 ar
    13    20    19 ar
    14    23    22 ar
    15    18    17 1
    16    19    17 ar
    17    19    21 ar
    18    17    16 ar
    19     7     6 ar
    20    22    21 ar
    21    21    15 ar
    22    28    27 ar
    23    28    29 ar
    24    16    14 ar
    25    27    32 ar
    26    15    14 ar
    27    14    13 1
    28     6     4 1
    29    13     5 2
    30    29    30 ar
    31    32    31 ar
    32     4     5 1
    33     4     2 1
    34     3     2 1
    35    30    31 ar
    36     2     1 1
    37     1    33 1
    38     1    34 1
    39     1    35 1
    40     2    36 1
    41     3    37 1
    42     3    38 1
    43     3    39 1
    44     8    40 1
    45    11    41 1
    46    11    42 1
    47    15    43 1
    48    16    44 1
    49    18    45 1
    50    18    46 1
    51    18    47 1
    52    22    48 1
    53    23    49 1
    54    26    50 1
    55    26    51 1
    56    28    52 1
    57    29    53 1
    58    30    54 1
    59    31    55 1
    60    32    56 1
@<TRIPOS>SUBSTRUCTURE
     1 2H1         1 TEMP              0 ****  ****    0 ROOT
