@<TRIPOS>MOLECULE
2H2
   45    46     1     0     0
SMALL
bcc


@<TRIPOS>ATOM
      1 O2           0.0000     0.0000     0.0000 o          1 2H2      -0.586800
      2 S            1.4210     0.0000     0.0000 sy         1 2H2       1.060200
      3 O1           2.1980     0.0000     1.1890 o          1 2H2      -0.586800
      4 C13          1.9180    -1.4180    -0.9200 ca         1 2H2      -0.165500
      5 C18          1.0620    -1.9710    -1.8540 ca         1 2H2      -0.004000
      6 C17          1.4530    -3.0840    -2.5760 ca         1 2H2      -0.133500
      7 C16          2.6990    -3.6430    -2.3630 ca         1 2H2      -0.017000
      8 C15          3.5550    -3.0900    -1.4300 ca         1 2H2      -0.133500
      9 C14          3.1660    -1.9750    -0.7110 ca         1 2H2      -0.004000
     10 N1           1.8880     1.3330    -0.8650 n7         1 2H2      -0.650100
     11 C12          1.2890     1.6060    -2.1730 c3         1 2H2       0.319900
     12 C11          1.5830     2.9910    -2.5700 c1         1 2H2      -0.206100
     13 C10          1.8360     4.0950    -2.8780 cg         1 2H2      -0.201000
     14 C7           1.6410     5.7710    -3.5830 ca         1 2H2       0.174000
     15 C6           0.9120     5.7880    -4.8050 ca         1 2H2      -0.071000
     16 C5           0.9100     7.2070    -5.1290 ca         1 2H2      -0.108500
     17 C8           2.3310     6.6370    -2.6270 ca         1 2H2      -0.071000
     18 C9           2.0740     7.8010    -3.3210 ca         1 2H2      -0.108500
     19 C4           1.6010     8.4330    -4.2530 ca         1 2H2      -0.080600
     20 C3           1.6440     9.5830    -4.9740 c          1 2H2       0.669700
     21 O            1.9300    10.4890    -4.4250 o          1 2H2      -0.606100
     22 N            1.2460    10.0170    -6.2190 ns         1 2H2      -0.226900
     23 C2           0.9570    11.2740    -6.6560 c3         1 2H2       0.106000
     24 C1          -0.0790    11.1710    -7.7980 c3         1 2H2      -0.096400
     25 C           -0.0930    12.5740    -8.5660 c3         1 2H2       0.527900
     26 F            1.1850    12.7500    -8.7500 f          1 2H2      -0.204633
     27 F1          -0.3850    12.3240    -9.9580 f          1 2H2      -0.204633
     28 F2          -0.7510    13.6540    -8.1500 f          1 2H2      -0.204633
     29 H1           0.2570    -1.2760    -2.0640 ha         1 2H2       0.118000
     30 H2           0.7150    -3.4010    -3.3030 ha         1 2H2       0.116000
     31 H3           2.8220    -4.5150    -2.9940 ha         1 2H2       0.104000
     32 H4           4.5000    -3.3750    -0.9830 ha         1 2H2       0.116000
     33 H5           3.9790    -1.3430    -0.3730 ha         1 2H2       0.118000
     34 H6           2.3220     2.1800    -0.5540 hn         1 2H2       0.363800
     35 H7           1.9380     1.0020    -2.7960 h1         1 2H2       0.047700
     36 H8           0.2840     1.4200    -1.8140 h1         1 2H2       0.047700
     37 H9           0.3270     4.9300    -5.1150 ha         1 2H2       0.171000
     38 H10          0.5300     7.4650    -6.1100 ha         1 2H2       0.070000
     39 H11          2.7620     6.7140    -1.6360 ha         1 2H2       0.171000
     40 H12          2.5710     8.5520    -2.7190 ha         1 2H2       0.070000
     41 H13          1.0000     9.2230    -6.7760 hn         1 2H2       0.139500
     42 H14          0.5420    11.9280    -5.8990 h1         1 2H2       0.033700
     43 H15          1.7090    11.7840    -7.2460 h1         1 2H2       0.033700
     44 H16         -1.1120    11.3770    -7.5440 hc         1 2H2       0.044700
     45 H17         -0.0780    10.3440    -8.4980 hc         1 2H2       0.044700
@<TRIPOS>BOND
     1     1     2 2   
     2     2     3 2   
     3     2     4 1   
     4     2    10 1   
     5     4     5 ar  
     6     4     9 ar  
     7     5     6 ar  
     8     5    29 1   
     9     6     7 ar  
    10     6    30 1   
    11     7     8 ar  
    12     7    31 1   
    13     8     9 ar  
    14     8    32 1   
    15     9    33 1   
    16    10    11 1   
    17    10    34 1   
    18    11    12 1   
    19    11    35 1   
    20    11    36 1   
    21    12    13 3   
    22    13    14 1   
    23    14    15 ar  
    24    14    17 ar  
    25    15    16 ar  
    26    15    37 1   
    27    16    19 ar  
    28    16    38 1   
    29    17    18 ar  
    30    17    39 1   
    31    18    19 ar  
    32    18    40 1   
    33    19    20 1   
    34    20    21 2   
    35    20    22 1   
    36    22    23 1   
    37    22    41 1   
    38    23    24 1   
    39    23    42 1   
    40    23    43 1   
    41    24    25 1   
    42    24    44 1   
    43    24    45 1   
    44    25    26 1   
    45    25    27 1   
    46    25    28 1   
@<TRIPOS>SUBSTRUCTURE
     1 2H2         1 TEMP              0 ****  ****    0 ROOT
