@<TRIPOS>MOLECULE
2H3
   24    24     1     0     0
SMALL
bcc


@<TRIPOS>ATOM
      1 O3          0.0280   -0.2570   -0.3070 oh        1 2H3     -0.609800
      2 C3          1.4270   -0.0890   -0.1470 c3        1 2H3      0.113100
      3 C4          1.8000    0.0100    1.3390 c3        1 2H3      0.113100
      4 O4          1.1900    1.1950    1.8220 oh        1 2H3     -0.609800
      5 C5          3.3260    0.0770    1.5000 c3        1 2H3      0.113100
      6 O5          3.5750    0.1240    2.8950 oh        1 2H3     -0.609800
      7 C6          3.9810   -1.1620    0.8700 c3        1 2H3      0.113100
      8 O6          5.3790   -0.9930    1.0290 oh        1 2H3     -0.609800
      9 C1          3.6070   -1.2600   -0.6170 c3        1 2H3      0.113100
     10 O1          4.2180   -2.4460   -1.0990 oh        1 2H3     -0.609800
     11 C2          2.0810   -1.3270   -0.7770 c3        1 2H3      0.113100
     12 O2          1.8330   -1.3750   -2.1730 oh        1 2H3     -0.609800
     13 H1         -0.3950    0.4640    0.1790 ho        1 2H3      0.431000
     14 H2          1.7540    0.8440   -0.6870 h1        1 2H3      0.064700
     15 H3          1.3940   -0.8750    1.9040 h1        1 2H3      0.064700
     16 H4          1.5050    1.3210    2.7270 ho        1 2H3      0.431000
     17 H5          3.7300    1.0100    1.0170 h1        1 2H3      0.064700
     18 H6          4.5330    0.0600    3.0080 ho        1 2H3      0.431000
     19 H7          3.6540   -2.0940    1.4090 h1        1 2H3      0.064700
     20 H8          5.8020   -1.7150    0.5430 ho        1 2H3      0.431000
     21 H9          4.0130   -0.3750   -1.1820 h1        1 2H3      0.064700
     22 H10         3.9020   -2.5710   -2.0050 ho        1 2H3      0.431000
     23 H11         1.6770   -2.2610   -0.2950 h1        1 2H3      0.064700
     24 H12         0.8750   -1.3100   -2.2860 ho        1 2H3      0.431000
@<TRIPOS>BOND
     1    1    2 1   
     2    1   13 1   
     3    2    3 1   
     4    2   11 1   
     5    2   14 1   
     6    3    4 1   
     7    3    5 1   
     8    3   15 1   
     9    4   16 1   
    10    5    6 1   
    11    5    7 1   
    12    5   17 1   
    13    6   18 1   
    14    7    8 1   
    15    7    9 1   
    16    7   19 1   
    17    8   20 1   
    18    9   10 1   
    19    9   11 1   
    20    9   21 1   
    21   10   22 1   
    22   11   12 1   
    23   11   23 1   
    24   12   24 1   
@<TRIPOS>SUBSTRUCTURE
     1 2H3         1 TEMP              0 ****  ****    0 ROOT
