@<TRIPOS>MOLECULE
molecule
   24    24     1     0     0
SMALL
bcc


@<TRIPOS>ATOM
      1 O3           0.0000     0.0000     0.0000 oh         1 2H3      -0.590467
      2 C3           1.4290     0.0000     0.0000 c3         1 2H3       0.118933
      3 C4           1.9390     0.0000     1.4420 c3         1 2H3       0.118933
      4 O4           1.4630     1.1670     2.1160 oh         1 2H3      -0.590467
      5 C5           3.4680    -0.0000     1.4430 c3         1 2H3       0.118933
      6 O5           3.9450     0.0000     2.7910 oh         1 2H3      -0.590467
      7 C6           3.9790    -1.2510     0.7220 c3         1 2H3       0.118933
      8 O6           5.4080    -1.2510     0.7220 oh         1 2H3      -0.590467
      9 C1           3.4690    -1.2510    -0.7200 c3         1 2H3       0.118933
     10 O1           3.9450    -2.4170    -1.3930 oh         1 2H3      -0.590467
     11 C2           1.9390    -1.2500    -0.7210 c3         1 2H3       0.118933
     12 O2           1.4630    -1.2510    -2.0680 oh         1 2H3      -0.590467
     13 H1          -0.3140     0.7680    -0.4470 ho         1 2H3       0.410667
     14 H2           1.7940     0.8830    -0.5100 h1         1 2H3       0.060867
     15 H3           1.5790    -0.8870     1.9500 h1         1 2H3       0.060867
     16 H4           0.9180     0.9110     2.8420 ho         1 2H3       0.410667
     17 H5           3.8270     0.8830     0.9280 h1         1 2H3       0.060867
     18 H6           3.6280    -0.7680     3.2370 ho         1 2H3       0.410667
     19 H7           3.6130    -2.1340     1.2330 h1         1 2H3       0.060867
     20 H8           5.7220    -2.0320     1.1460 ho         1 2H3       0.410667
     21 H9           3.8280    -0.3640    -1.2280 h1         1 2H3       0.060867
     22 H10          4.4670    -2.1610    -2.1350 ho         1 2H3       0.410667
     23 H11          1.5790    -2.1330    -0.2060 h1         1 2H3       0.060867
     24 H12          0.9390    -2.0200    -2.2160 ho         1 2H3       0.410667
@<TRIPOS>BOND
     1     4     3 1   
     2     6     5 1   
     3     5     3 1   
     4     5     7 1   
     5     3     2 1   
     6     2     1 1   
     7     2    11 1   
     8     8     7 1   
     9     7     9 1   
    10    12    11 1   
    11     9    11 1   
    12     9    10 1   
    13     1    13 1   
    14     2    14 1   
    15     3    15 1   
    16     4    16 1   
    17     5    17 1   
    18     6    18 1   
    19     7    19 1   
    20     8    20 1   
    21     9    21 1   
    22    10    22 1   
    23    11    23 1   
    24    12    24 1   
@<TRIPOS>SUBSTRUCTURE
     1 2H3         1 TEMP              0 ****  ****    0 ROOT
