@<TRIPOS>MOLECULE
2H4
   38    40     1     0     0
SMALL
bcc


@<TRIPOS>ATOM
      1 OAC          0.0000     0.0000     0.0000 oh         1 2H4      -0.481100
      2 CAQ          1.3600     0.0000     0.0000 ca         1 2H4       0.099100
      3 CAH          2.0550     0.0000     1.1970 ca         1 2H4      -0.144000
      4 CAR          2.0590    -0.0060    -1.2030 ca         1 2H4       0.095100
      5 OAD          1.3860    -0.0130    -2.3840 oh         1 2H4      -0.483100
      6 CAI          3.4430    -0.0040    -1.1920 ca         1 2H4      -0.130000
      7 CAT          4.1350     0.0030     0.0110 ca         1 2H4      -0.078300
      8 CAS          3.4420    -0.0010     1.2030 ca         1 2H4      -0.057300
      9 CAK          4.1520    -0.0110     2.5320 c3         1 2H4       0.036900
     10 CAJ          5.6130     0.4040     2.3470 c3         1 2H4       0.145800
     11 NAM          6.1930    -0.4050     1.2620 n7         1 2H4      -0.588200
     12 CAU          5.6410     0.0080    -0.0310 c3         1 2H4       0.187800
     13 CAL          6.1190    -0.9630    -1.1140 c3         1 2H4       0.025900
     14 CAN          7.6180    -0.8700    -1.2440 ca         1 2H4      -0.098300
     15 CAG          8.1790     0.0360    -2.1260 ca         1 2H4      -0.126000
     16 CAE          8.4290    -1.6870    -0.4790 ca         1 2H4      -0.092000
     17 CAF          9.8040    -1.6060    -0.5950 ca         1 2H4      -0.138000
     18 CAO         10.3720    -0.7040    -1.4800 ca         1 2H4       0.096100
     19 OAA         11.7250    -0.6240    -1.5960 oh         1 2H4      -0.480100
     20 CAP          9.5560     0.1210    -2.2480 ca         1 2H4       0.100100
     21 OAB         10.1090     1.0110    -3.1140 oh         1 2H4      -0.483100
     22 H1          -0.3140    -0.8220     0.3390 ho         1 2H4       0.396000
     23 H2           1.5120     0.0120     2.1350 ha         1 2H4       0.116000
     24 H3           1.3020    -0.9000    -2.6930 ho         1 2H4       0.396000
     25 H4           3.9890    -0.0080    -2.1270 ha         1 2H4       0.122000
     26 H5           3.6650     0.6850     3.2040 hc         1 2H4       0.025200
     27 H6           4.1140    -1.0090     2.9510 hc         1 2H4       0.025200
     28 H7           6.1600     0.2270     3.2650 h1         1 2H4       0.009700
     29 H8           5.6620     1.4530     2.0830 h1         1 2H4       0.009700
     30 H9           7.1870    -0.2880     1.2540 hn         1 2H4       0.266800
     31 H11          5.9880     1.0080    -0.2630 h1         1 2H4       0.018700
     32 H12          5.6580    -0.7050    -2.0590 hc         1 2H4       0.031700
     33 H13          5.8420    -1.9730    -0.8400 hc         1 2H4       0.031700
     34 H14          7.5410     0.6770    -2.7220 ha         1 2H4       0.118000
     35 H15          7.9860    -2.3920     0.2140 ha         1 2H4       0.119000
     36 H16         10.4370    -2.2470     0.0060 ha         1 2H4       0.114000
     37 H17         12.0540    -1.4140    -1.9930 ho         1 2H4       0.397000
     38 H18         10.0860     0.6550    -3.9870 ho         1 2H4       0.397000
@<TRIPOS>BOND
     1     1     2 1   
     2     1    22 1   
     3     2     3 ar  
     4     2     4 ar  
     5     3     8 ar  
     6     3    23 1   
     7     4     5 1   
     8     4     6 ar  
     9     5    24 1   
    10     6     7 ar  
    11     6    25 1   
    12     7     8 ar  
    13     7    12 1   
    14     8     9 1   
    15     9    10 1   
    16     9    26 1   
    17     9    27 1   
    18    10    11 1   
    19    10    28 1   
    20    10    29 1   
    21    11    12 1   
    22    11    30 1   
    23    12    13 1   
    24    12    31 1   
    25    13    14 1   
    26    13    32 1   
    27    13    33 1   
    28    14    15 ar  
    29    14    16 ar  
    30    15    20 ar  
    31    15    34 1   
    32    16    17 ar  
    33    16    35 1   
    34    17    18 ar  
    35    17    36 1   
    36    18    19 1   
    37    18    20 ar  
    38    19    37 1   
    39    20    21 1   
    40    21    38 1   
@<TRIPOS>SUBSTRUCTURE
     1 2H4         1 TEMP              0 ****  ****    0 ROOT
