@<TRIPOS>MOLECULE
molecule
   23    23     1     0     0
SMALL
bcc


@<TRIPOS>ATOM
      1 C2           0.0000     0.0000     0.0000 c3         1 2H5       0.102100
      2 C6           1.8950    -1.1880     3.6430 c3         1 2H5       0.151400
      3 C3           1.5310     0.0000     0.0000 c3         1 2H5       0.143600
      4 C4           2.0300     0.0000     1.4490 c3         1 2H5       0.085100
      5 C5           1.4500    -1.2130     2.1800 c3         1 2H5       0.161100
      6 C1          -0.5040    -1.2120     0.7880 c3         1 2H5       0.344900
      7 O1          -1.9320    -1.1870     0.8390 oh         1 2H5      -0.573800
      8 O2          -0.4770    -0.0720    -1.3450 oh         1 2H5      -0.594800
      9 F3           2.0000     1.1440    -0.6550 f          1 2H5      -0.235300
     10 O4           1.6070     1.1990     2.1000 oh         1 2H5      -0.581800
     11 O5           0.0220    -1.1680     2.1160 os         1 2H5      -0.414600
     12 O6           1.4510    -2.3780     4.2970 oh         1 2H5      -0.600800
     13 H1          -0.3600     0.9080     0.4680 h1         1 2H5       0.085700
     14 H2           2.9760    -1.1320     3.6910 h1         1 2H5       0.038200
     15 H3           1.4660    -0.3240     4.1360 h1         1 2H5       0.038200
     16 H4           1.8920    -0.8870    -0.5060 h1         1 2H5       0.069700
     17 H5           3.1120    -0.0590     1.4570 h1         1 2H5       0.050700
     18 H6           1.8030    -2.1210     1.7050 h1         1 2H5       0.052700
     19 H7          -0.1720    -2.1200     0.3000 h2         1 2H5       0.030700
     20 H8          -2.2600    -2.0680     0.9160 ho         1 2H5       0.416000
     21 H9          -0.9500     0.7160    -1.5540 ho         1 2H5       0.418000
     22 H10          2.3380     1.7890     2.1780 ho         1 2H5       0.408000
     23 H11          1.8370    -2.4270     5.1560 ho         1 2H5       0.405000
@<TRIPOS>BOND
     1    12     2 1
     2     2     5 1
     3     5     4 1
     4     5    11 1
     5     4     3 1
     6     4    10 1
     7    11     6 1
     8     3     1 1
     9     3     9 1
    10     6     1 1
    11     6     7 1
    12     1     8 1
    13     1    13 1
    14     2    14 1
    15     2    15 1
    16     3    16 1
    17     4    17 1
    18     5    18 1
    19     6    19 1
    20     7    20 1
    21     8    21 1
    22    10    22 1
    23    12    23 1
@<TRIPOS>SUBSTRUCTURE
     1 2H5         1 TEMP              0 ****  ****    0 ROOT
