@<TRIPOS>MOLECULE
2H5
   23    23     1     0     0
SMALL
bcc


@<TRIPOS>ATOM
      1 C2          0.0540    0.0470    0.0550 c3        1 2H5      0.064100
      2 C6          1.9420   -1.3310    3.6280 c3        1 2H5      0.143400
      3 C3          1.5950    0.0930    0.0170 c3        1 2H5      0.142600
      4 C4          2.1490   -0.0440    1.4590 c3        1 2H5      0.086100
      5 C5          1.5540   -1.2780    2.1450 c3        1 2H5      0.116100
      6 C1         -0.4220   -1.2070    0.8180 c3        1 2H5      0.311900
      7 O1         -1.8010   -1.1550    1.0620 oh        1 2H5     -0.593800
      8 O2         -0.3910   -0.0150   -1.2860 oh        1 2H5     -0.583800
      9 F3          2.0440    1.2770   -0.5430 f         1 2H5     -0.228300
     10 O4          1.8300    1.0950    2.2390 oh        1 2H5     -0.586800
     11 O5          0.1270   -1.2720    2.1250 os        1 2H5     -0.447600
     12 O6          1.5510   -2.5560    4.2050 oh        1 2H5     -0.596800
     13 H1         -0.3370    0.9750    0.5580 h1        1 2H5      0.069700
     14 H2          3.0590   -1.2990    3.7250 h1        1 2H5      0.067200
     15 H3          1.4800   -0.4630    4.1680 h1        1 2H5      0.067200
     16 H4          1.9720   -0.7630   -0.6130 h1        1 2H5      0.077700
     17 H5          3.2690   -0.1550    1.4040 h1        1 2H5      0.059700
     18 H6          1.9190   -2.2000    1.6100 h1        1 2H5      0.060700
     19 H7         -0.2280   -2.1470    0.2310 h2        1 2H5      0.087700
     20 H8         -1.9510   -0.5800    1.8270 ho        1 2H5      0.429000
     21 H9         -1.3530   -0.1070   -1.2510 ho        1 2H5      0.421000
     22 H10         2.1300    1.8670    1.7400 ho        1 2H5      0.418000
     23 H11         0.5880   -2.6050    4.1420 ho        1 2H5      0.414000
@<TRIPOS>BOND
     1    1    3 1   
     2    1    6 1   
     3    1    8 1   
     4    1   13 1   
     5    2    5 1   
     6    2   12 1   
     7    2   14 1   
     8    2   15 1   
     9    3    4 1   
    10    3    9 1   
    11    3   16 1   
    12    4    5 1   
    13    4   10 1   
    14    4   17 1   
    15    5   11 1   
    16    5   18 1   
    17    6    7 1   
    18    6   11 1   
    19    6   19 1   
    20    7   20 1   
    21    8   21 1   
    22   10   22 1   
    23   12   23 1   
@<TRIPOS>SUBSTRUCTURE
     1 2H5         1 TEMP              0 ****  ****    0 ROOT
