@<TRIPOS>MOLECULE
molecule
   55    58     1     0     0
SMALL
bcc


@<TRIPOS>ATOM
      1 C10          0.0000     0.0000     0.0000 ca         1 2H7      -0.163600
      2 C13          2.0830     0.0000     1.1950 ca         1 2H7      -0.178500
      3 C15          0.0030     0.0070     2.4010 ca         1 2H7      -0.178500
      4 C20          1.9450     0.0750   -10.2790 ca         1 2H7      -0.099000
      5 C21          1.6880     1.2870   -10.9450 ca         1 2H7      -0.035000
      6 C22          0.4930     1.9950   -10.6610 ca         1 2H7      -0.030000
      7 C24         -0.1260     0.2990    -9.0920 ca         1 2H7      -0.116000
      8 C26          2.3090     2.9850   -12.5100 ca         1 2H7      -0.127000
      9 C28          0.2360     3.2050   -11.3260 ca         1 2H7      -0.116000
     10 C01          2.2090    -1.4430    -7.4490 c3         1 2H7       0.083000
     11 N02          1.4750    -0.6310    -6.4750 na         1 2H7       0.130400
     12 C03          0.6200    -1.0980    -5.5360 cc         1 2H7      -0.290600
     13 C04          0.1720    -0.0130    -4.8620 cd         1 2H7       0.245600
     14 N05          0.7670     1.0500    -5.4140 nd         1 2H7      -0.355000
     15 N06          1.5370     0.6510    -6.3640 nc         1 2H7      -0.175800
     16 C07         -0.8050    -0.0060    -3.7130 c3         1 2H7       0.106700
     17 N08         -0.0700    -0.0060    -2.4470 ns         1 2H7      -0.580900
     18 C09         -0.7410     0.0010    -1.2780 c          1 2H7       0.674700
     19 O11         -1.9570     0.0060    -1.2760 o          1 2H7      -0.609100
     20 C12          1.3970     0.0000     0.0000 ca         1 2H7      -0.061000
     21 C14          1.3900    -0.0000     2.3960 ca         1 2H7       0.155900
     22 C16         -0.6930     0.0060     1.2120 ca         1 2H7      -0.061000
     23 C18          1.3220    -1.7030    -8.6690 c3         1 2H7      -0.052100
     24 C19          1.0460    -0.4010    -9.3750 ca         1 2H7      -0.094300
     25 C23         -0.4110     1.4720    -9.7200 ca         1 2H7      -0.106000
     26 C25          2.5910     1.8090   -11.8850 ca         1 2H7      -0.113000
     27 C27          1.1350     3.6810   -12.2310 ca         1 2H7      -0.124000
     28 C29          2.5980    -2.7770    -6.8090 c3         1 2H7      -0.170400
     29 C30          3.4910    -3.5440    -7.7500 c          1 2H7       0.675100
     30 N31          3.8680    -4.8020    -7.4460 ns         1 2H7      -0.468400
     31 O32          4.7070    -5.5230    -8.3310 oh         1 2H7      -0.355100
     32 O33          3.8680    -3.0300    -8.7820 o          1 2H7      -0.573100
     33 F17          2.0680     0.0000     3.5640 f          1 2H7      -0.135900
     34 H1           3.1670    -0.0030     1.1960 ha         1 2H7       0.150000
     35 H2          -0.5330     0.0090     3.3420 ha         1 2H7       0.150000
     36 H4          -0.8260    -0.1020    -8.3680 ha         1 2H7       0.126000
     37 H5           3.0080     3.3850   -13.2340 ha         1 2H7       0.128000
     38 H6          -0.6730     3.7570   -11.1200 ha         1 2H7       0.133000
     39 H7           3.1040    -0.9160    -7.7590 h1         1 2H7       0.119700
     40 H8           0.3490    -2.1320    -5.3590 h4         1 2H7       0.179000
     41 H9          -1.4310    -0.8880    -3.7670 h1         1 2H7       0.067700
     42 H10         -1.4240     0.8810    -3.7720 h1         1 2H7       0.067700
     43 H11          0.9310     0.0190    -2.4490 hn         1 2H7       0.319500
     44 H12          1.9390     0.0000    -0.9380 ha         1 2H7       0.149000
     45 H13         -1.7760     0.0120     1.2180 ha         1 2H7       0.149000
     46 H14          1.8280    -2.3810    -9.3450 hc         1 2H7       0.072200
     47 H15          0.3870    -2.1450    -8.3470 hc         1 2H7       0.072200
     48 H16         -1.3260     2.0050    -9.4900 ha         1 2H7       0.135000
     49 H17          3.5080     1.2790   -12.1120 ha         1 2H7       0.134000
     50 H18          0.9340     4.6150   -12.7420 ha         1 2H7       0.128000
     51 H19          1.7050    -3.3550    -6.6070 hc         1 2H7       0.073700
     52 H20          3.1260    -2.5920    -5.8810 hc         1 2H7       0.073700
     53 H21          3.5740    -5.2180    -6.5850 hn         1 2H7       0.322500
     54 H22          4.8250    -6.4000    -8.0070 ho         1 2H7       0.403000
     55 H3           2.8520    -0.4790   -10.4890 ha         1 2H7       0.143000
@<TRIPOS>BOND
     1    27     8 ar
     2    27     9 ar
     3     8    26 ar
     4     9     6 ar
     5    26     5 ar
     6     6     5 ar
     7     6    25 ar
     8     5     4 ar
     9    25     7 ar
    10    28    10 1
    11    28    29 1
    12     4    24 ar
    13     7    24 ar
    14    24    23 1
    15    10    23 1
    16    10    11 1
    17    29    30 1
    18    29    32 2
    19     2    20 ar
    20     2    21 ar
    21    30    31 1
    22    20     1 ar
    23    33    21 1
    24    19    18 2
    25    21     3 ar
    26    11    12 1
    27    11    15 1
    28    12    13 2
    29     1    18 1
    30     1    22 ar
    31    18    17 1
    32     3    22 ar
    33    15    14 2
    34    13    14 1
    35    13    16 1
    36    17    16 1
    37     2    34 1
    38     3    35 1
    39     4    55 1
    40     7    36 1
    41     8    37 1
    42     9    38 1
    43    10    39 1
    44    12    40 1
    45    16    41 1
    46    16    42 1
    47    17    43 1
    48    20    44 1
    49    22    45 1
    50    23    46 1
    51    23    47 1
    52    25    48 1
    53    26    49 1
    54    27    50 1
    55    28    51 1
    56    28    52 1
    57    30    53 1
    58    31    54 1
@<TRIPOS>SUBSTRUCTURE
     1 2H7         1 TEMP              0 ****  ****    0 ROOT
