@<TRIPOS>MOLECULE
molecule
   44    44     1     0     0
SMALL
bcc


@<TRIPOS>ATOM
      1 CAA          0.0000     0.0000     0.0000 c3         1 2H8      -0.093600
      2 CAI          1.5310     0.0000     0.0000 c3         1 2H8      -0.096400
      3 CAR          2.0400     0.0000     1.4430 c3         1 2H8       0.142100
      4 CAJ          3.5650    -0.1260     1.4450 c3         1 2H8      -0.096400
      5 CAB          4.0650    -0.2450     2.8870 c3         1 2H8      -0.093600
      6 OAM          1.6610     1.2190     2.0830 os         1 2H8      -0.415600
      7 CAS          1.3670     1.0800     3.4740 c3         1 2H8       0.128100
      8 CAK         -0.0850     0.6340     3.6500 c3         1 2H8      -0.076200
      9 CAP         -0.4830     0.7290     5.0950 ce         1 2H8      -0.020400
     10 CAO         -1.6820    -0.0000     5.5320 c          1 2H8       0.857800
     11 OAG         -2.3880    -0.7290     4.6450 o          1 2H8      -0.794300
     12 OAF         -2.0350     0.0540     6.6940 o          1 2H8      -0.794300
     13 CAH          0.1800     1.4290     5.9910 c2         1 2H8      -0.336200
     14 CAQ          1.4220     2.2130     5.6870 c3         1 2H8       0.146700
     15 NAD          1.3540     3.5160     6.3630 nz         1 2H8      -0.799600
     16 CAT          1.5510     2.4300     4.1770 c3         1 2H8       0.093700
     17 NAL          2.8780     2.9690     3.8690 ns         1 2H8      -0.586900
     18 CAN          3.0660     4.3020     3.8080 c          1 2H8       0.653100
     19 OAE          2.1360     5.0560     4.0070 o          1 2H8      -0.646100
     20 CAC          4.4310     4.8570     3.4910 c3         1 2H8      -0.171100
     21 H1          -0.3610    -0.2080    -1.0000 hc         1 2H8       0.036700
     22 H2          -0.3610     0.9700     0.3190 hc         1 2H8       0.036700
     23 H3          -0.3610    -0.7620     0.6800 hc         1 2H8       0.036700
     24 H4           1.8920    -0.8850    -0.5100 hc         1 2H8       0.052200
     25 H5           1.8920     0.8850    -0.5110 hc         1 2H8       0.052200
     26 H6           1.6080    -0.8370     1.9780 h1         1 2H8       0.053700
     27 H7           4.0000     0.7520     0.9830 hc         1 2H8       0.052200
     28 H8           3.8550    -1.0090     0.8880 hc         1 2H8       0.052200
     29 H9           4.3620     0.7330     3.2470 hc         1 2H8       0.036700
     30 H10          4.9150    -0.9150     2.9200 hc         1 2H8       0.036700
     31 H11          3.2720    -0.6350     3.5130 hc         1 2H8       0.036700
     32 H12          2.0280     0.3460     3.9200 h1         1 2H8       0.051700
     33 H13         -0.1870    -0.3930     3.3190 hc         1 2H8       0.099200
     34 H14         -0.7300     1.2730     3.0590 hc         1 2H8       0.099200
     35 H16         -0.1930     1.4380     7.0080 ha         1 2H8       0.172000
     36 H17          2.2860     1.6640     6.0430 hx         1 2H8       0.092700
     37 H18          1.0560     3.3850     7.3090 hn         1 2H8       0.448800
     38 H19          0.7010     4.1050     5.8860 hn         1 2H8       0.448800
     39 H21          0.7860     3.1200     3.8430 h1         1 2H8       0.111700
     40 H22          3.6520     2.3480     3.7380 hn         1 2H8       0.334500
     41 H23          4.6620     4.6750     2.4490 hc         1 2H8       0.070033
     42 H24          4.4400     5.9240     3.6820 hc         1 2H8       0.070033
     43 H25          5.1720     4.3730     4.1150 hc         1 2H8       0.070033
     44 HAD3         2.2630     3.9350     6.3720 hn         1 2H8       0.448800
@<TRIPOS>BOND
     1    20    18 1   
     2     2     3 1   
     3     2     1 1   
     4     3     4 1   
     5     3     6 1   
     6     4     5 1   
     7    17    18 1   
     8    17    16 1   
     9    18    19 2   
    10     6     7 1   
    11     7    16 1   
    12     7     8 1   
    13    16    14 1   
    14    14    15 1   
    15    14    13 1   
    16    13     9 2   
    17     8     9 1   
    18     9    10 1   
    19    11    10 1   
    20    10    12 1   
    21     1    21 1   
    22     1    22 1   
    23     1    23 1   
    24     2    24 1   
    25     2    25 1   
    26     3    26 1   
    27     4    27 1   
    28     4    28 1   
    29     5    29 1   
    30     5    30 1   
    31     5    31 1   
    32     7    32 1   
    33     8    33 1   
    34     8    34 1   
    35    13    35 1   
    36    14    36 1   
    37    15    37 1   
    38    15    38 1   
    39    16    39 1   
    40    17    40 1   
    41    20    41 1   
    42    20    42 1   
    43    20    43 1   
    44    44    15 1   
@<TRIPOS>SUBSTRUCTURE
     1 2H8         1 TEMP              0 ****  ****    0 ROOT
