@<TRIPOS>MOLECULE
2H8
   44    44     1     0     0
SMALL
bcc


@<TRIPOS>ATOM
      1 CAA          0.0000     0.0000     0.0000 c3         1 2H8      -0.002100
      2 CAI          1.5310     0.0000     0.0000 c3         1 2H8      -0.046400
      3 CAR          2.0400     0.0000     1.4430 c3         1 2H8       0.172100
      4 CAJ          3.5650    -0.1260     1.4450 c3         1 2H8      -0.046400
      5 CAB          4.0650    -0.2450     2.8870 c3         1 2H8      -0.002100
      6 OAM          1.6610     1.2190     2.0830 os         1 2H8      -0.398600
      7 CAS          1.3670     1.0800     3.4740 c3         1 2H8       0.148100
      8 CAK         -0.0850     0.6340     3.6500 c3         1 2H8      -0.019200
      9 CAP         -0.4830     0.7290     5.0950 ce         1 2H8      -0.001400
     10 CAO         -1.6820    -0.0000     5.5320 c          1 2H8       0.939800
     11 OAG         -2.3880    -0.7290     4.6450 o          1 2H8      -0.841300
     12 OAF         -2.0350     0.0540     6.6940 o          1 2H8      -0.841300
     13 CAH          0.1800     1.4290     5.9910 c2         1 2H8      -0.351200
     14 CAQ          1.4220     2.2130     5.6870 c3         1 2H8      -0.002300
     15 NAD          1.3540     3.5160     6.3630 nz         1 2H8       0.058400
     16 CAT          1.5510     2.4300     4.1770 c3         1 2H8      -0.002300
     17 NAL          2.8780     2.9690     3.8690 ns         1 2H8      -0.208900
     18 CAN          3.0660     4.3020     3.8080 c          1 2H8       0.576100
     19 OAE          2.1360     5.0560     4.0070 o          1 2H8      -0.686100
     20 CAC          4.4310     4.8570     3.4910 c3         1 2H8      -0.064100
     21 H1          -0.3610    -0.2080    -1.0000 hc         1 2H8       0.006700
     22 H2          -0.3610     0.9700     0.3190 hc         1 2H8       0.006700
     23 H3          -0.3610    -0.7620     0.6800 hc         1 2H8       0.006700
     24 H4           1.8920    -0.8850    -0.5100 hc         1 2H8       0.023450
     25 H5           1.8920     0.8850    -0.5110 hc         1 2H8       0.023450
     26 H6           1.6080    -0.8370     1.9780 h1         1 2H8       0.029700
     27 H7           4.0000     0.7520     0.9830 hc         1 2H8       0.023450
     28 H8           3.8550    -1.0090     0.8880 hc         1 2H8       0.023450
     29 H9           4.3620     0.7330     3.2470 hc         1 2H8       0.006700
     30 H10          4.9150    -0.9150     2.9200 hc         1 2H8       0.006700
     31 H11          3.2720    -0.6350     3.5130 hc         1 2H8       0.006700
     32 H12          2.0280     0.3460     3.9200 h1         1 2H8       0.034700
     33 H13         -0.1870    -0.3930     3.3190 hc         1 2H8       0.067700
     34 H14         -0.7300     1.2730     3.0590 hc         1 2H8       0.067700
     35 H16         -0.1930     1.4380     7.0080 ha         1 2H8       0.161000
     36 H17          2.2860     1.6640     6.0430 hx         1 2H8       0.067700
     37 H18          1.0560     3.3850     7.3090 hn         1 2H8       0.224800
     38 H19          0.7010     4.1050     5.8860 hn         1 2H8       0.224800
     39 H21          0.7860     3.1200     3.8430 h1         1 2H8       0.087700
     40 H22          3.6520     2.3480     3.7380 hn         1 2H8       0.204500
     41 H23          4.6620     4.6750     2.4490 hc         1 2H8       0.031033
     42 H24          4.4400     5.9240     3.6820 hc         1 2H8       0.031033
     43 H25          5.1720     4.3730     4.1150 hc         1 2H8       0.031033
     44 HAD3         2.2630     3.9350     6.3720 hn         1 2H8       0.224800
@<TRIPOS>BOND
     1     1     2 1   
     2     1    21 1   
     3     1    22 1   
     4     1    23 1   
     5     2     3 1   
     6     2    24 1   
     7     2    25 1   
     8     3     4 1   
     9     3     6 1   
    10     3    26 1   
    11     4     5 1   
    12     4    27 1   
    13     4    28 1   
    14     5    29 1   
    15     5    30 1   
    16     5    31 1   
    17     6     7 1   
    18     7     8 1   
    19     7    16 1   
    20     7    32 1   
    21     8     9 1   
    22     8    33 1   
    23     8    34 1   
    24     9    10 1   
    25     9    13 2   
    26    10    11 1   
    27    10    12 1   
    28    13    14 1   
    29    13    35 1   
    30    14    15 1   
    31    14    16 1   
    32    14    36 1   
    33    15    37 1   
    34    15    38 1   
    35    15    44 1   
    36    16    17 1   
    37    16    39 1   
    38    17    18 1   
    39    17    40 1   
    40    18    19 2   
    41    18    20 1   
    42    20    41 1   
    43    20    42 1   
    44    20    43 1   
@<TRIPOS>SUBSTRUCTURE
     1 2H8         1 TEMP              0 ****  ****    0 ROOT
