@<TRIPOS>MOLECULE
2H9
   43    43     1     0     0
SMALL
bcc


@<TRIPOS>ATOM
      1 CAM          0.0000     0.0000     0.0000 ca         1 2H9      -0.060000
      2 CAK          1.3790     0.0000     0.0000 ca         1 2H9      -0.131500
      3 CAJ          2.0750     0.0000     1.1970 ca         1 2H9      -0.143000
      4 CAL          1.3910     0.0000     2.4000 ca         1 2H9      -0.131500
      5 CAN          0.0120    -0.0000     2.4140 ca         1 2H9      -0.060000
      6 CAY         -0.6950     0.0060     1.2100 ca         1 2H9      -0.089600
      7 CAX         -2.1740     0.0070     1.2170 c          1 2H9       0.556700
      8 OAD         -2.7770     0.0020     2.2730 o          1 2H9      -0.740100
      9 NAR         -2.8530     0.0130     0.0540 ns         1 2H9      -0.038900
     10 CBA         -4.3180     0.0140     0.0600 c3         1 2H9      -0.126300
     11 CAW         -4.8190     1.4280     0.1940 c          1 2H9       1.020600
     12 OAH         -4.0340     2.3420     0.2740 o          1 2H9      -0.926800
     13 OAC         -6.1400     1.6720     0.2230 o          1 2H9      -0.926800
     14 CAQ         -4.8350    -0.5900    -1.2480 c3         1 2H9       0.274400
     15 OAT         -4.4620     0.2520    -2.3400 os         1 2H9      -0.442200
     16 PBB         -4.8410    -0.0760    -3.8700 p5         1 2H9       0.728700
     17 OAI         -4.4990     1.1970    -4.7930 o          1 2H9      -0.667500
     18 OAE         -6.2870    -0.3810    -3.9660 o          1 2H9      -0.667500
     19 N           -3.9510    -1.4050    -4.3960 n7         1 2H9      -0.592300
     20 CA          -2.5090    -1.1390    -4.3140 c3         1 2H9       0.073500
     21 C           -2.0130    -0.6520    -5.6520 c          1 2H9       0.991600
     22 OXT         -0.7150    -0.3440    -5.8150 o          1 2H9      -0.942800
     23 O           -2.7810    -0.5390    -6.5770 o          1 2H9      -0.942800
     24 CB          -1.7740    -2.4250    -3.9340 c3         1 2H9      -0.011400
     25 CG          -2.1860    -2.8510    -2.5240 c3         1 2H9      -0.136400
     26 CD          -1.4610    -4.1180    -2.1490 c          1 2H9       0.988600
     27 OE2         -1.6690    -4.6800    -0.9480 o          1 2H9      -0.951300
     28 OE1         -0.6940    -4.6280    -2.9300 o          1 2H9      -0.951300
     29 H1          -0.5410     0.0710    -0.9360 ha         1 2H9       0.129500
     30 H2           1.9190     0.0010    -0.9390 ha         1 2H9       0.083000
     31 H3           3.1580    -0.0000     1.1910 ha         1 2H9       0.067000
     32 H4           1.9410    -0.0000     3.3340 ha         1 2H9       0.083000
     33 H5          -0.5210     0.0670     3.3550 ha         1 2H9       0.129500
     34 H6          -2.3570     0.0550    -0.8140 hn         1 2H9       0.190500
     35 H7          -4.6760    -0.5760     0.8950 h1         1 2H9       0.030700
     36 H9          -5.9140    -0.6710    -1.2070 h1         1 2H9      -0.011800
     37 H10         -4.4030    -1.5740    -1.3870 h1         1 2H9      -0.011800
     38 H12         -4.3110    -1.9930    -5.1210 hn         1 2H9       0.286800
     39 H13         -2.3240    -0.3810    -3.5620 h1         1 2H9       0.029700
     40 H15         -0.7050    -2.2510    -3.9610 hc         1 2H9       0.008200
     41 H16         -2.0290    -3.2080    -4.6370 hc         1 2H9       0.008200
     42 H17         -3.2550    -3.0250    -2.4970 hc         1 2H9       0.013200
     43 H18         -1.9300    -2.0670    -1.8210 hc         1 2H9       0.013200
@<TRIPOS>BOND
     1     1     2 ar  
     2     1     6 ar  
     3     1    29 1   
     4     2     3 ar  
     5     2    30 1   
     6     3     4 ar  
     7     3    31 1   
     8     4     5 ar  
     9     4    32 1   
    10     5     6 ar  
    11     5    33 1   
    12     6     7 1   
    13     7     8 2   
    14     7     9 1   
    15     9    10 1   
    16     9    34 1   
    17    10    11 1   
    18    10    14 1   
    19    10    35 1   
    20    11    12 1   
    21    11    13 1   
    22    14    15 1   
    23    14    36 1   
    24    14    37 1   
    25    15    16 1   
    26    16    17 1   
    27    16    18 1   
    28    16    19 1   
    29    19    20 1   
    30    19    38 1   
    31    20    21 1   
    32    20    24 1   
    33    20    39 1   
    34    21    22 1   
    35    21    23 1   
    36    24    25 1   
    37    24    40 1   
    38    24    41 1   
    39    25    26 1   
    40    25    42 1   
    41    25    43 1   
    42    26    27 1   
    43    26    28 1   
@<TRIPOS>SUBSTRUCTURE
     1 2H9         1 TEMP              0 ****  ****    0 ROOT
