@<TRIPOS>MOLECULE
molecule
   43    43     1     0     0
SMALL
bcc


@<TRIPOS>ATOM
      1 CAM          0.0000     0.0000     0.0000 ca         1 2H9      -0.081500
      2 CAK          1.3790     0.0000     0.0000 ca         1 2H9      -0.154500
      3 CAJ          2.0750     0.0000     1.1970 ca         1 2H9      -0.157000
      4 CAL          1.3910     0.0000     2.4000 ca         1 2H9      -0.154500
      5 CAN          0.0120    -0.0000     2.4140 ca         1 2H9      -0.081500
      6 CAY         -0.6950     0.0060     1.2100 ca         1 2H9      -0.093600
      7 CAX         -2.1740     0.0070     1.2170 c          1 2H9       0.661700
      8 OAD         -2.7770     0.0020     2.2730 o          1 2H9      -0.682100
      9 NAR         -2.8530     0.0130     0.0540 ns         1 2H9      -0.486900
     10 CBA         -4.3180     0.0140     0.0600 c3         1 2H9       0.003700
     11 CAW         -4.8190     1.4280     0.1940 c          1 2H9       0.919600
     12 OAH         -4.0340     2.3420     0.2740 o          1 2H9      -0.869300
     13 OAC         -6.1400     1.6720     0.2230 o          1 2H9      -0.869300
     14 CAQ         -4.8350    -0.5900    -1.2480 c3         1 2H9       0.209400
     15 OAT         -4.4620     0.2520    -2.3400 os         1 2H9      -0.569200
     16 PBB         -4.8410    -0.0760    -3.8700 p5         1 2H9       1.321700
     17 OAI         -4.4990     1.1970    -4.7930 o          1 2H9      -0.849500
     18 OAE         -6.2870    -0.3810    -3.9660 o          1 2H9      -0.849500
     19 N           -3.9510    -1.4050    -4.3960 n7         1 2H9      -0.932300
     20 CA          -2.5090    -1.1390    -4.3140 c3         1 2H9       0.112500
     21 C           -2.0130    -0.6520    -5.6520 c          1 2H9       0.895600
     22 OXT         -0.7150    -0.3440    -5.8150 o          1 2H9      -0.888300
     23 O           -2.7810    -0.5390    -6.5770 o          1 2H9      -0.888300
     24 CB          -1.7740    -2.4250    -3.9340 c3         1 2H9      -0.048400
     25 CG          -2.1860    -2.8510    -2.5240 c3         1 2H9      -0.174400
     26 CD          -1.4610    -4.1180    -2.1490 c          1 2H9       0.892600
     27 OE2         -1.6690    -4.6800    -0.9480 o          1 2H9      -0.901800
     28 OE1         -0.6940    -4.6280    -2.9300 o          1 2H9      -0.901800
     29 H1          -0.5410     0.0710    -0.9360 ha         1 2H9       0.156000
     30 H2           1.9190     0.0010    -0.9390 ha         1 2H9       0.107000
     31 H3           3.1580    -0.0000     1.1910 ha         1 2H9       0.087000
     32 H4           1.9410    -0.0000     3.3340 ha         1 2H9       0.107000
     33 H5          -0.5210     0.0670     3.3550 ha         1 2H9       0.156000
     34 H6          -2.3570     0.0550    -0.8140 hn         1 2H9       0.334500
     35 H7          -4.6760    -0.5760     0.8950 h1         1 2H9       0.049700
     36 H9          -5.9140    -0.6710    -1.2070 h1         1 2H9       0.026700
     37 H10         -4.4030    -1.5740    -1.3870 h1         1 2H9       0.026700
     38 H12         -4.3110    -1.9930    -5.1210 hn         1 2H9       0.394800
     39 H13         -2.3240    -0.3810    -3.5620 h1         1 2H9       0.045700
     40 H15         -0.7050    -2.2510    -3.9610 hc         1 2H9       0.031200
     41 H16         -2.0290    -3.2080    -4.6370 hc         1 2H9       0.031200
     42 H17         -3.2550    -3.0250    -2.4970 hc         1 2H9       0.032200
     43 H18         -1.9300    -2.0670    -1.8210 hc         1 2H9       0.032200
@<TRIPOS>BOND
     1    23    21 1   
     2    28    26 1   
     3    26    27 1   
     4    26    25 1   
     5    21    22 1   
     6    21    20 1   
     7    25    24 1   
     8    24    20 1   
     9    20    19 1   
    10     4     3 ar  
    11     4     5 ar  
    12     3     2 ar  
    13     5     6 ar  
    14    18    16 1   
    15    19    16 1   
    16     2     1 ar  
    17     6     1 ar  
    18     6     7 1   
    19    14    15 1   
    20    14    10 1   
    21    16    15 1   
    22    16    17 1   
    23     9     7 1   
    24     9    10 1   
    25     7     8 2   
    26    10    11 1   
    27    11    12 1   
    28    11    13 1   
    29     1    29 1   
    30     2    30 1   
    31     3    31 1   
    32     4    32 1   
    33     5    33 1   
    34     9    34 1   
    35    10    35 1   
    36    14    36 1   
    37    14    37 1   
    38    19    38 1   
    39    20    39 1   
    40    24    40 1   
    41    24    41 1   
    42    25    42 1   
    43    25    43 1   
@<TRIPOS>SUBSTRUCTURE
     1 2H9         1 TEMP              0 ****  ****    0 ROOT
