@<TRIPOS>MOLECULE
2HA
   12    11     1     0     0
SMALL
bcc


@<TRIPOS>ATOM
      1 O1          0.2380    0.5280   -0.2450 oh        1 2HA     -0.584800
      2 O2          1.2220   -0.0150    2.2670 o         1 2HA     -0.527100
      3 O3          3.8700   -0.5340    2.8040 oh        1 2HA     -0.584800
      4 C1          1.5540    0.0410   -0.1110 c3        1 2HA      0.035400
      5 C2          2.0180   -0.0030    1.3220 c         1 2HA      0.495100
      6 C3          3.5090   -0.0330    1.5360 c3        1 2HA      0.035400
      7 H1         -0.2940    0.1390    0.4640 ho        1 2HA      0.421000
      8 H3          3.2570   -0.1610    3.4540 ho        1 2HA      0.421000
      9 H1C1        1.6270   -0.9970   -0.5410 h1        1 2HA      0.072200
     10 H1C2        2.1920    0.7410   -0.7150 h1        1 2HA      0.072200
     11 H3C1        4.0050   -0.7180    0.7960 h1        1 2HA      0.072200
     12 H3C2        3.9090    1.0120    1.4070 h1        1 2HA      0.072200
@<TRIPOS>BOND
     1    1    4 1   
     2    1    7 1   
     3    2    5 2   
     4    3    6 1   
     5    3    8 1   
     6    4    5 1   
     7    4    9 1   
     8    4   10 1   
     9    5    6 1   
    10    6   11 1   
    11    6   12 1   
@<TRIPOS>SUBSTRUCTURE
     1 2HA         1 TEMP              0 ****  ****    0 ROOT
