@<TRIPOS>MOLECULE
molecule
   12    11     1     0     0
SMALL
bcc


@<TRIPOS>ATOM
      1 O1           0.0000     0.0000     0.0000 oh         1 2HA      -0.578800
      2 O2           1.1480     0.0000     2.3380 o          1 2HA      -0.450100
      3 O3           3.6370    -0.0000     3.1050 oh         1 2HA      -0.578800
      4 C1           1.4280     0.0000     0.0000 c3         1 2HA       0.045400
      5 C2           1.9320     0.0000     1.4200 c          1 2HA       0.547100
      6 C3           3.4130    -0.0000     1.6940 c3         1 2HA       0.045400
      7 H1          -0.3140     0.0000    -0.8890 ho         1 2HA       0.405000
      8 H3           4.5640    -0.0000     3.2760 ho         1 2HA       0.405000
      9 H1C1         1.7890     0.8840    -0.5110 h1         1 2HA       0.039700
     10 H1C2         1.7890    -0.8840    -0.5110 h1         1 2HA       0.039700
     11 H3C1         3.8610     0.8840     1.2580 h1         1 2HA       0.039700
     12 H3C2         3.8610    -0.8840     1.2580 h1         1 2HA       0.039700
@<TRIPOS>BOND
     1     1     4 1
     2     1     7 1
     3     2     5 2
     4     3     6 1
     5     3     8 1
     6     4     5 1
     7     4     9 1
     8     4    10 1
     9     5     6 1
    10     6    11 1
    11     6    12 1
@<TRIPOS>SUBSTRUCTURE
     1 2HA         1 TEMP              0 ****  ****    0 ROOT
