@<TRIPOS>MOLECULE
molecule
   53    57     1     0     0
SMALL
bcc


@<TRIPOS>ATOM
      1 C8           0.0000     0.0000     0.0000 ca         1 2HB      -0.082300
      2 C5          -1.9180    -1.4340    -2.8650 c3         1 2HB       0.173300
      3 C2          -1.2880    -3.6930    -0.9470 c3         1 2HB      -0.193600
      4 C4          -1.8330    -2.8010    -3.5500 c3         1 2HB      -0.193600
      5 C1          -1.4460    -2.2080    -0.6040 c3         1 2HB       0.173300
      6 C7          -0.7500    -0.0010    -1.3070 c3         1 2HB       0.217100
      7 C9           1.3830     0.0000     0.0000 ca         1 2HB      -0.122000
      8 C10          2.0770     0.0000     1.1930 ca         1 2HB      -0.093500
      9 C11          1.3790     0.0010     2.4020 ca         1 2HB      -0.053000
     10 C12         -0.0170     0.0020     2.3940 ca         1 2HB      -0.093500
     11 C13         -0.6970     0.0060     1.1950 ca         1 2HB      -0.122000
     12 C14          2.1140     0.0020     3.6840 cc         1 2HB       0.067700
     13 C15          2.8880     1.0760     4.0230 cd         1 2HB      -0.176000
     14 C16          3.5870     1.0810     5.2340 cd         1 2HB      -0.094000
     15 C17          3.4920     0.0100     6.0750 cc         1 2HB      -0.116000
     16 C18          2.6920    -1.0870     5.7110 cc         1 2HB       0.031700
     17 C21          1.5810    -2.9490     5.5590 cd         1 2HB       0.640900
     18 C24          1.4390    -4.8060     7.0360 c          1 2HB       0.688100
     19 C26          0.8980    -6.1700     7.3820 cx         1 2HB      -0.237700
     20 C27          1.3410    -6.7900     8.7090 cx         1 2HB      -0.106900
     21 C28         -0.0870    -6.2630     8.5490 cx         1 2HB      -0.106900
     22 S3          -2.3550    -4.0800    -2.3670 s6         1 2HB       1.097000
     23 O29         -3.7060    -3.8380    -2.0020 o          1 2HB      -0.617300
     24 N6          -0.9940    -1.3860    -1.7300 n3         1 2HB      -0.748600
     25 N19          2.0130    -1.0700     4.5260 na         1 2HB       0.184000
     26 N20          1.3120    -2.2820     4.4550 nc         1 2HB      -0.650100
     27 N23          1.0800    -4.2120     5.8790 ns         1 2HB      -0.453400
     28 O25          2.1980    -4.2440     7.7950 o          1 2HB      -0.532100
     29 N22          2.4160    -2.2410     6.3130 nd         1 2HB      -0.437300
     30 H1          -1.6540    -0.6600    -3.5750 h1         1 2HB       0.057950
     31 H2          -2.9290    -1.2740    -2.5100 h1         1 2HB       0.057950
     32 H3          -0.2560    -3.8980    -1.2020 h1         1 2HB       0.108450
     33 H4          -1.5850    -4.2940    -0.0960 h1         1 2HB       0.108450
     34 H5          -0.8120    -2.9880    -3.8600 h1         1 2HB       0.108450
     35 H6          -2.4890    -2.8150    -4.4130 h1         1 2HB       0.108450
     36 H7          -0.8510    -1.9770     0.2700 h1         1 2HB       0.057950
     37 H8          -2.4890    -1.9960    -0.4020 h1         1 2HB       0.057950
     38 H9          -1.6970     0.5090    -1.1800 h1         1 2HB       0.046700
     39 H10         -0.1630     0.5090    -2.0610 h1         1 2HB       0.046700
     40 H11          1.9230    -0.0010    -0.9390 ha         1 2HB       0.139500
     41 H12          3.1600    -0.0000     1.1910 ha         1 2HB       0.143000
     42 H13         -0.5650     0.0050     3.3290 ha         1 2HB       0.143000
     43 H14         -1.7810     0.0060     1.1880 ha         1 2HB       0.139500
     44 H15          2.9610     1.9240     3.3530 ha         1 2HB       0.159000
     45 H16          4.2010     1.9320     5.5040 ha         1 2HB       0.148000
     46 H17          4.0300     0.0060     7.0150 ha         1 2HB       0.167000
     47 H18          0.7240    -6.8820     6.5840 hc         1 2HB       0.088700
     48 H19          1.4440    -7.8680     8.7090 hc         1 2HB       0.085950
     49 H20          2.0000    -6.1790     9.3130 hc         1 2HB       0.085950
     50 H21         -0.3010    -5.3300     9.0560 hc         1 2HB       0.085950
     51 H22         -0.8570    -7.0200     8.4520 hc         1 2HB       0.085950
     52 H24          0.4810    -4.6910     5.2360 hn         1 2HB       0.341500
     53 O30         -1.9860    -5.3520    -2.8800 o          1 2HB      -0.617300
@<TRIPOS>BOND
     1    23    22 2   
     2     3    22 1   
     3     3     5 1   
     4    53    22 2   
     5    22     4 1   
     6     5    24 1   
     7     4     2 1   
     8     2    24 1   
     9    24     6 1   
    10     6     1 1   
    11    11     1 ar  
    12    11    10 ar  
    13     1     7 ar  
    14    10     9 ar  
    15     7     8 ar  
    16     9     8 ar  
    17     9    12 1   
    18    28    18 2   
    19    12    13 2   
    20    12    25 1   
    21    13    14 1   
    22    26    25 1   
    23    26    17 2   
    24    25    16 1   
    25    21    20 1   
    26    21    19 1   
    27    18    19 1   
    28    18    27 1   
    29    20    19 1   
    30    14    15 2   
    31    17    27 1   
    32    17    29 1   
    33    16    15 1   
    34    16    29 2   
    35     2    30 1   
    36     2    31 1   
    37     3    32 1   
    38     3    33 1   
    39     4    34 1   
    40     4    35 1   
    41     5    36 1   
    42     5    37 1   
    43     6    38 1   
    44     6    39 1   
    45     7    40 1   
    46     8    41 1   
    47    10    42 1   
    48    11    43 1   
    49    13    44 1   
    50    14    45 1   
    51    15    46 1   
    52    19    47 1   
    53    20    48 1   
    54    20    49 1   
    55    21    50 1   
    56    21    51 1   
    57    27    52 1   
@<TRIPOS>SUBSTRUCTURE
     1 2HB         1 TEMP              0 ****  ****    0 ROOT
