@<TRIPOS>MOLECULE
2HB
   53    57     1     0     0
SMALL
bcc


@<TRIPOS>ATOM
      1 C8           0.0000     0.0000     0.0000 ca         1 2HB      -0.092300
      2 C5          -1.9180    -1.4340    -2.8650 c3         1 2HB       0.159800
      3 C2          -1.2880    -3.6930    -0.9470 c3         1 2HB      -0.000100
      4 C4          -1.8330    -2.8010    -3.5500 c3         1 2HB      -0.000100
      5 C1          -1.4460    -2.2080    -0.6040 c3         1 2HB       0.159800
      6 C7          -0.7500    -0.0010    -1.3070 c3         1 2HB       0.220100
      7 C9           1.3830     0.0000     0.0000 ca         1 2HB      -0.092500
      8 C10          2.0770     0.0000     1.1930 ca         1 2HB      -0.067500
      9 C11          1.3790     0.0010     2.4020 ca         1 2HB      -0.047000
     10 C12         -0.0170     0.0020     2.3940 ca         1 2HB      -0.067500
     11 C13         -0.6970     0.0060     1.1950 ca         1 2HB      -0.092500
     12 C14          2.1140     0.0020     3.6840 cc         1 2HB      -0.128300
     13 C15          2.8880     1.0760     4.0230 cd         1 2HB      -0.117000
     14 C16          3.5870     1.0810     5.2340 cd         1 2HB      -0.089000
     15 C17          3.4920     0.0100     6.0750 cc         1 2HB      -0.062000
     16 C18          2.6920    -1.0870     5.7110 cc         1 2HB      -0.170300
     17 C21          1.5810    -2.9490     5.5590 cd         1 2HB       0.503900
     18 C24          1.4390    -4.8060     7.0360 c          1 2HB       0.584100
     19 C26          0.8980    -6.1700     7.3820 cx         1 2HB      -0.218700
     20 C27          1.3410    -6.7900     8.7090 cx         1 2HB      -0.048900
     21 C28         -0.0870    -6.2630     8.5490 cx         1 2HB      -0.048900
     22 S3          -2.3550    -4.0800    -2.3670 s6         1 2HB       0.788000
     23 O29         -3.7060    -3.8380    -2.0020 o          1 2HB      -0.587300
     24 N6          -0.9940    -1.3860    -1.7300 n3         1 2HB      -0.554600
     25 N19          2.0130    -1.0700     4.5260 na         1 2HB       0.698000
     26 N20          1.3120    -2.2820     4.4550 nc         1 2HB      -0.832100
     27 N23          1.0800    -4.2120     5.8790 ns         1 2HB       0.000600
     28 O25          2.1980    -4.2440     7.7950 o          1 2HB      -0.569100
     29 N22          2.4160    -2.2410     6.3130 nd         1 2HB      -0.372300
     30 H1          -1.6540    -0.6600    -3.5750 h1         1 2HB       0.030700
     31 H2          -2.9290    -1.2740    -2.5100 h1         1 2HB       0.030700
     32 H3          -0.2560    -3.8980    -1.2020 h1         1 2HB       0.075200
     33 H4          -1.5850    -4.2940    -0.0960 h1         1 2HB       0.075200
     34 H5          -0.8120    -2.9880    -3.8600 h1         1 2HB       0.075200
     35 H6          -2.4890    -2.8150    -4.4130 h1         1 2HB       0.075200
     36 H7          -0.8510    -1.9770     0.2700 h1         1 2HB       0.030700
     37 H8          -2.4890    -1.9960    -0.4020 h1         1 2HB       0.030700
     38 H9          -1.6970     0.5090    -1.1800 h1         1 2HB       0.015700
     39 H10         -0.1630     0.5090    -2.0610 h1         1 2HB       0.015700
     40 H11          1.9230    -0.0010    -0.9390 ha         1 2HB       0.112500
     41 H12          3.1600    -0.0000     1.1910 ha         1 2HB       0.112500
     42 H13         -0.5650     0.0050     3.3290 ha         1 2HB       0.112500
     43 H14         -1.7810     0.0060     1.1880 ha         1 2HB       0.112500
     44 H15          2.9610     1.9240     3.3530 ha         1 2HB       0.127000
     45 H16          4.2010     1.9320     5.5040 ha         1 2HB       0.117000
     46 H17          4.0300     0.0060     7.0150 ha         1 2HB       0.133000
     47 H18          0.7240    -6.8820     6.5840 hc         1 2HB       0.062700
     48 H19          1.4440    -7.8680     8.7090 hc         1 2HB       0.052450
     49 H20          2.0000    -6.1790     9.3130 hc         1 2HB       0.052450
     50 H21         -0.3010    -5.3300     9.0560 hc         1 2HB       0.052450
     51 H22         -0.8570    -7.0200     8.4520 hc         1 2HB       0.052450
     52 H24          0.4810    -4.6910     5.2360 hn         1 2HB       0.175500
     53 O30         -1.9860    -5.3520    -2.8800 o          1 2HB      -0.587300
@<TRIPOS>BOND
     1     1     6 1   
     2     1     7 ar  
     3     1    11 ar  
     4     2     4 1   
     5     2    24 1   
     6     2    30 1   
     7     2    31 1   
     8     3     5 1   
     9     3    22 1   
    10     3    32 1   
    11     3    33 1   
    12     4    22 1   
    13     4    34 1   
    14     4    35 1   
    15     5    24 1   
    16     5    36 1   
    17     5    37 1   
    18     6    24 1   
    19     6    38 1   
    20     6    39 1   
    21     7     8 ar  
    22     7    40 1   
    23     8     9 ar  
    24     8    41 1   
    25     9    10 ar  
    26     9    12 1   
    27    10    11 ar  
    28    10    42 1   
    29    11    43 1   
    30    12    13 2   
    31    12    25 1   
    32    13    14 1   
    33    13    44 1   
    34    14    15 2   
    35    14    45 1   
    36    15    16 1   
    37    15    46 1   
    38    16    25 1   
    39    16    29 2   
    40    17    26 2   
    41    17    27 1   
    42    17    29 1   
    43    18    19 1   
    44    18    27 1   
    45    18    28 2   
    46    19    20 1   
    47    19    21 1   
    48    19    47 1   
    49    20    21 1   
    50    20    48 1   
    51    20    49 1   
    52    21    50 1   
    53    21    51 1   
    54    22    23 2   
    55    22    53 2   
    56    25    26 1   
    57    27    52 1   
@<TRIPOS>SUBSTRUCTURE
     1 2HB         1 TEMP              0 ****  ****    0 ROOT
