@<TRIPOS>MOLECULE
2HC
   19    19     1     0     0
SMALL
bcc


@<TRIPOS>ATOM
      1 CA          0.3660    0.5630    0.7410 ce        1 2HC     -0.137200
      2 C           0.5680   -0.5650   -0.2450 c         1 2HC      0.897800
      3 OXT         1.1820   -1.5890    0.1640 o         1 2HC     -0.830800
      4 O           0.1670   -0.4040   -1.4350 o         1 2HC     -0.830800
      5 CB         -0.7510    0.9430    1.3690 cf        1 2HC     -0.201200
      6 CG         -2.0860    0.3900    1.2220 ca        1 2HC     -0.072800
      7 CD1        -2.5650   -0.0560   -0.0180 ca        1 2HC     -0.083000
      8 CE1        -3.8740   -0.5160   -0.1520 ca        1 2HC     -0.170000
      9 CZ         -4.7310   -0.5440    0.9460 ca        1 2HC     -0.130000
     10 CE2        -4.2790   -0.1300    2.1960 ca        1 2HC     -0.177000
     11 CD2        -2.9600    0.3270    2.3300 ca        1 2HC      0.103100
     12 OH         -2.5880    0.7200    3.6020 oh        1 2HC     -0.528100
     13 HA          1.3050    1.1030    0.9540 ha        1 2HC      0.097000
     14 HB         -0.7030    1.7950    2.0760 ha        1 2HC      0.082000
     15 HD1        -1.8710   -0.0560   -0.8840 ha        1 2HC      0.203000
     16 HE1        -4.2270   -0.8640   -1.1340 ha        1 2HC      0.120000
     17 HZ         -5.7640   -0.9020    0.8340 ha        1 2HC      0.109000
     18 HE2        -4.9330   -0.1580    3.0770 ha        1 2HC      0.125000
     19 HOH        -1.6200    0.7420    3.6270 ho        1 2HC      0.423000
@<TRIPOS>BOND
     1    1    2 1   
     2    1    5 2   
     3    1   13 1   
     4    2    3 1   
     5    2    4 1   
     6    5    6 1   
     7    5   14 1   
     8    6    7 ar  
     9    6   11 ar  
    10    7    8 ar  
    11    7   15 1   
    12    8    9 ar  
    13    8   16 1   
    14    9   10 ar  
    15    9   17 1   
    16   10   11 ar  
    17   10   18 1   
    18   11   12 1   
    19   12   19 1   
@<TRIPOS>SUBSTRUCTURE
     1 2HC         1 TEMP              0 ****  ****    0 ROOT
