@<TRIPOS>MOLECULE
molecule
   19    19     1     0     0
SMALL
bcc


@<TRIPOS>ATOM
      1 CA           0.0000     0.0000     0.0000 ce         1 2HC      -0.137200
      2 C            1.4170     0.0000     0.0000 c          1 2HC       0.859800
      3 OXT          2.0930     0.0000     1.1680 o          1 2HC      -0.842300
      4 O            2.0250    -0.0010    -1.0530 o          1 2HC      -0.842300
      5 CB          -0.6770     0.0000    -1.1690 cf         1 2HC      -0.169200
      6 CG          -2.1440     0.0010    -1.1680 ca         1 2HC      -0.023800
      7 CD1         -2.8490     0.0020     0.0420 ca         1 2HC      -0.124000
      8 CE1         -4.2260     0.0030     0.0340 ca         1 2HC      -0.146000
      9 CZ          -4.9190     0.0020    -1.1660 ca         1 2HC      -0.146000
     10 CE2         -4.2380     0.0000    -2.3670 ca         1 2HC      -0.183000
     11 CD2         -2.8520     0.0050    -2.3810 ca         1 2HC       0.095100
     12 OH          -2.1820     0.0040    -3.5600 oh         1 2HC      -0.505100
     13 HA          -0.5410     0.0010     0.9390 ha         1 2HC       0.101000
     14 HB          -0.1360     0.0000    -2.1070 ha         1 2HC       0.165000
     15 HD1         -2.3120    -0.0570     0.9810 ha         1 2HC       0.148000
     16 HE1         -4.7700     0.0040     0.9710 ha         1 2HC       0.115000
     17 HZ          -6.0020     0.0030    -1.1610 ha         1 2HC       0.111000
     18 HE2         -4.7880    -0.0090    -3.3000 ha         1 2HC       0.117000
     19 HOH         -2.4190     0.7690    -4.0580 ho         1 2HC       0.406000
@<TRIPOS>BOND
     1     1     2 1
     2     1     5 2
     3     1    13 1
     4     2     3 1
     5     2     4 1
     6     5     6 1
     7     5    14 1
     8     6     7 ar
     9     6    11 ar
    10     7     8 ar
    11     7    15 1
    12     8     9 ar
    13     8    16 1
    14     9    10 ar
    15     9    17 1
    16    10    11 ar
    17    10    18 1
    18    11    12 1
    19    12    19 1
@<TRIPOS>SUBSTRUCTURE
     1 2HC         1 TEMP              0 ****  ****    0 ROOT
