@<TRIPOS>MOLECULE
molecule
   65    64     1     0     0
SMALL
bcc


@<TRIPOS>ATOM
      1 O20          0.0000     0.0000     0.0000 o          1 2HD      -0.777300
      2 P9           1.4800     0.0000     0.0000 p5         1 2HD       1.188300
      3 C8           2.0860     0.0000     1.7190 c3         1 2HD      -0.256600
      4 C7           1.5760    -1.2480     2.4400 c3         1 2HD      -0.061400
      5 C6           2.0850    -1.2480     3.8830 c3         1 2HD      -0.074400
      6 C5           1.5750    -2.4980     4.6050 c3         1 2HD      -0.082400
      7 C4           2.0830    -2.4970     6.0470 c3         1 2HD      -0.081400
      8 C3           1.5730    -3.7460     6.7690 c3         1 2HD      -0.081400
      9 C2           2.0830    -3.7460     8.2110 c3         1 2HD      -0.084400
     10 C1           1.5720    -4.9950     8.9330 c3         1 2HD      -0.092100
     11 O10          2.0170     1.3140    -0.7590 os         1 2HD      -0.579200
     12 C11          1.7120     1.6040    -2.1250 c3         1 2HD       0.209400
     13 C12          2.3780     2.9210    -2.5280 c3         1 2HD       0.148100
     14 O21          1.8040     3.9930    -1.7770 os         1 2HD      -0.410600
     15 C22          2.7020     5.0780    -1.5320 c3         1 2HD       0.135400
     16 C23          1.9850     6.1620    -0.7250 c3         1 2HD      -0.080400
     17 C24          2.9460     7.3220    -0.4630 c3         1 2HD      -0.082400
     18 C25          2.2290     8.4070     0.3440 c3         1 2HD      -0.090100
     19 C13          2.1560     3.1690    -4.0210 c3         1 2HD       0.114400
     20 O14          2.8740     4.3380    -4.4220 os         1 2HD      -0.430600
     21 C15          2.7330     4.6590    -5.8070 c3         1 2HD       0.137400
     22 C16          3.5400     5.9200    -6.1220 c3         1 2HD      -0.081400
     23 C17          3.3890     6.2650    -7.6050 c3         1 2HD      -0.083400
     24 C18          4.1960     7.5270    -7.9200 c3         1 2HD      -0.090100
     25 H2           1.7250     0.8850     2.2290 hc         1 2HD       0.081700
     26 H3           3.1700    -0.0000     1.7200 hc         1 2HD       0.081700
     27 H4           1.9370    -2.1330     1.9300 hc         1 2HD       0.052200
     28 H5           0.4920    -1.2480     2.4400 hc         1 2HD       0.052200
     29 H6           1.7240    -0.3640     4.3940 hc         1 2HD       0.042700
     30 H7           3.1690    -1.2480     3.8840 hc         1 2HD       0.042700
     31 H8           1.9360    -3.3820     4.0940 hc         1 2HD       0.042700
     32 H9           0.4910    -2.4980     4.6040 hc         1 2HD       0.042700
     33 H10          3.1670    -2.4980     6.0480 hc         1 2HD       0.041200
     34 H11          1.7220    -1.6130     6.5580 hc         1 2HD       0.041200
     35 H12          0.4900    -3.7450     6.7680 hc         1 2HD       0.041700
     36 H13          1.9340    -4.6310     6.2580 hc         1 2HD       0.041700
     37 H14          1.7210    -2.8610     8.7220 hc         1 2HD       0.040200
     38 H15          3.1660    -3.7460     8.2120 hc         1 2HD       0.040200
     39 H16          1.9260    -4.9920     9.9560 hc         1 2HD       0.032700
     40 H17          1.9390    -5.8800     8.4260 hc         1 2HD       0.032700
     41 H18          0.4890    -4.9990     8.9260 hc         1 2HD       0.032700
     42 H19          2.0830     0.8040    -2.7550 h1         1 2HD       0.045700
     43 H20          0.6390     1.6890    -2.2450 h1         1 2HD       0.045700
     44 H21          3.4400     2.8660    -2.3250 h1         1 2HD       0.055700
     45 H22          3.0340     5.4910    -2.4770 h1         1 2HD       0.033700
     46 H23          3.5580     4.7180    -0.9740 h1         1 2HD       0.033700
     47 H24          1.1280     6.5210    -1.2830 hc         1 2HD       0.052700
     48 H25          1.6530     5.7480     0.2200 hc         1 2HD       0.052700
     49 H26          3.2780     7.7360    -1.4070 hc         1 2HD       0.039700
     50 H27          3.8020     6.9630     0.0960 hc         1 2HD       0.039700
     51 H28          2.9070     9.2320     0.5220 hc         1 2HD       0.033700
     52 H29          1.9030     7.9960     1.2920 hc         1 2HD       0.033700
     53 H30          1.3680     8.7610    -0.2110 hc         1 2HD       0.033700
     54 H31          1.0990     3.3120    -4.2100 h1         1 2HD       0.032700
     55 H32          2.5110     2.3150    -4.5850 h1         1 2HD       0.032700
     56 H33          3.1010     3.8360    -6.4080 h1         1 2HD       0.024700
     57 H34          1.6880     4.8330    -6.0330 h1         1 2HD       0.024700
     58 H35          3.1720     6.7430    -5.5210 hc         1 2HD       0.053200
     59 H36          4.5850     5.7460    -5.8960 hc         1 2HD       0.053200
     60 H37          2.3440     6.4390    -7.8310 hc         1 2HD       0.040700
     61 H38          3.7560     5.4420    -8.2060 hc         1 2HD       0.040700
     62 H39          5.2370     7.3610    -7.6740 hc         1 2HD       0.035033
     63 H40          3.8140     8.3550    -7.3360 hc         1 2HD       0.035033
     64 H41          4.1070     7.7580    -8.9750 hc         1 2HD       0.035033
     65 H1           1.9490    -1.1510    -0.6560 hp         1 2HD      -0.103400
@<TRIPOS>BOND
     1    23    24 1   
     2    23    22 1   
     3    21    20 1   
     4    21    22 1   
     5    20    19 1   
     6    12    11 1   
     7    12    13 1   
     8     1     2 2   
     9     2    11 1   
    10     2     3 1   
    11    13    19 1   
    12    13    14 1   
    13     3     4 1   
    14    14    15 1   
    15     4     5 1   
    16    15    16 1   
    17     5     6 1   
    18    16    17 1   
    19     6     7 1   
    20    17    18 1   
    21     7     8 1   
    22     8     9 1   
    23     9    10 1   
    24     3    25 1   
    25     3    26 1   
    26     4    27 1   
    27     4    28 1   
    28     5    29 1   
    29     5    30 1   
    30     6    31 1   
    31     6    32 1   
    32     7    33 1   
    33     7    34 1   
    34     8    35 1   
    35     8    36 1   
    36     9    37 1   
    37     9    38 1   
    38    10    39 1   
    39    10    40 1   
    40    10    41 1   
    41    12    42 1   
    42    12    43 1   
    43    13    44 1   
    44    15    45 1   
    45    15    46 1   
    46    16    47 1   
    47    16    48 1   
    48    17    49 1   
    49    17    50 1   
    50    18    51 1   
    51    18    52 1   
    52    18    53 1   
    53    19    54 1   
    54    19    55 1   
    55    21    56 1   
    56    21    57 1   
    57    22    58 1   
    58    22    59 1   
    59    23    60 1   
    60    23    61 1   
    61    24    62 1   
    62    24    63 1   
    63    24    64 1   
    64     2    65 1   
@<TRIPOS>SUBSTRUCTURE
     1 2HD         1 TEMP              0 ****  ****    0 ROOT
