@<TRIPOS>MOLECULE
2HD
   65    64     1     0     0
SMALL
bcc


@<TRIPOS>ATOM
      1 O20         0.2870   -1.3650   -1.4610 o         1 2HD     -0.848300
      2 P9          1.7430   -1.3160   -1.3970 p5        1 2HD      1.464300
      3 C8          2.4390   -0.6680   -0.0660 c3        1 2HD     -0.432600
      4 C7          1.7700   -1.2650    1.1460 c3        1 2HD     -0.071400
      5 C6          2.2660   -0.6560    2.4360 c3        1 2HD     -0.070400
      6 C5          1.5560   -1.2530    3.6330 c3        1 2HD     -0.080400
      7 C4          2.0550   -0.6440    4.9250 c3        1 2HD     -0.078400
      8 C3          1.3470   -1.2400    6.1220 c3        1 2HD     -0.079400
      9 C2          1.8450   -0.6320    7.4170 c3        1 2HD     -0.080400
     10 C1          1.1420   -1.2230    8.6110 c3        1 2HD     -0.093100
     11 O10         2.3220   -0.4680   -2.6540 os        1 2HD     -0.596200
     12 C11         1.5330    0.5700   -3.1780 c3        1 2HD      0.172400
     13 C12         2.2360    1.9210   -2.9700 c3        1 2HD      0.114100
     14 O21         2.0620    2.2560   -1.5930 os        1 2HD     -0.444600
     15 C22         2.9960    3.2330   -1.1270 c3        1 2HD      0.127400
     16 C23         2.6170    3.5350    0.3120 c3        1 2HD     -0.085400
     17 C24         3.5830    4.5320    0.9140 c3        1 2HD     -0.079400
     18 C25         3.2210    4.8530    2.3410 c3        1 2HD     -0.092100
     19 C13         1.5850    2.9850   -3.8590 c3        1 2HD      0.102400
     20 O14         2.5800    3.9780   -4.1010 os        1 2HD     -0.432600
     21 C15         2.1070    5.0180   -4.9560 c3        1 2HD      0.130400
     22 C16         3.2540    5.9980   -5.1240 c3        1 2HD     -0.084400
     23 C17         2.8440    7.1450   -6.0210 c3        1 2HD     -0.079400
     24 C18         3.9690    8.1300   -6.2000 c3        1 2HD     -0.092100
     25 H2          3.5450   -0.8310   -0.0040 hc        1 2HD      0.119200
     26 H3          2.3190    0.4540   -0.0450 hc        1 2HD      0.119200
     27 H4          1.9570   -2.3720    1.1500 hc        1 2HD      0.057200
     28 H5          0.6590   -1.1140    1.0500 hc        1 2HD      0.057200
     29 H6          2.1000    0.4540    2.4130 hc        1 2HD      0.042200
     30 H7          3.3710   -0.8230    2.5300 hc        1 2HD      0.042200
     31 H8          0.4510   -1.0820    3.5380 hc        1 2HD      0.043200
     32 H9          1.7190   -2.3630    3.6520 hc        1 2HD      0.043200
     33 H10         1.8920    0.4660    4.9060 hc        1 2HD      0.039200
     34 H11         3.1600   -0.8140    5.0190 hc        1 2HD      0.039200
     35 H12         1.5090   -2.3500    6.1420 hc        1 2HD      0.040700
     36 H13         0.2420   -1.0700    6.0290 hc        1 2HD      0.040700
     37 H14         2.9500   -0.8020    7.5080 hc        1 2HD      0.038200
     38 H15         1.6830    0.4780    7.3950 hc        1 2HD      0.038200
     39 H16         0.0420   -1.0420    8.5510 hc        1 2HD      0.033033
     40 H17         1.3130   -2.3260    8.6640 hc        1 2HD      0.033033
     41 H18         1.5240   -0.7620    9.5540 hc        1 2HD      0.033033
     42 H19         1.4360    0.3860   -4.2850 h1        1 2HD      0.068200
     43 H20         0.5170    0.5670   -2.6930 h1        1 2HD      0.068200
     44 H21         3.3310    1.8280   -3.2130 h1        1 2HD      0.076700
     45 H22         4.0340    2.8110   -1.1920 h1        1 2HD      0.040700
     46 H23         2.9330    4.1500   -1.7710 h1        1 2HD      0.040700
     47 H24         2.6210    2.5840    0.9070 hc        1 2HD      0.050200
     48 H25         1.5720    3.9400    0.3440 hc        1 2HD      0.050200
     49 H26         4.6250    4.1170    0.8740 hc        1 2HD      0.040200
     50 H27         3.5790    5.4730    0.3030 hc        1 2HD      0.040200
     51 H28         2.1950    5.2910    2.3990 hc        1 2HD      0.034700
     52 H29         3.2430    3.9310    2.9710 hc        1 2HD      0.034700
     53 H30         3.9430    5.5900    2.7680 hc        1 2HD      0.034700
     54 H31         0.7070    3.4480   -3.3370 h1        1 2HD      0.041700
     55 H32         1.2530    2.5420   -4.8340 h1        1 2HD      0.041700
     56 H33         1.2160    5.5150   -4.4860 h1        1 2HD      0.027700
     57 H34         1.8020    4.5810   -5.9450 h1        1 2HD      0.027700
     58 H35         4.1390    5.4630   -5.5580 hc        1 2HD      0.053700
     59 H36         3.5620    6.3850   -4.1180 hc        1 2HD      0.053700
     60 H37         2.5300    6.7450   -7.0220 hc        1 2HD      0.039700
     61 H38         1.9530    7.6660   -5.5800 hc        1 2HD      0.039700
     62 H39         4.8580    7.6340   -6.6610 hc        1 2HD      0.034700
     63 H40         3.6480    8.9680   -6.8650 hc        1 2HD      0.034700
     64 H41         4.2790    8.5590   -5.2160 hc        1 2HD      0.034700
     65 H1          2.3570   -2.4320   -1.5610 hp        1 2HD     -0.159400
@<TRIPOS>BOND
     1    1    2 2   
     2    2    3 1   
     3    2   11 1   
     4    2   65 1   
     5    3    4 1   
     6    3   25 1   
     7    3   26 1   
     8    4    5 1   
     9    4   27 1   
    10    4   28 1   
    11    5    6 1   
    12    5   29 1   
    13    5   30 1   
    14    6    7 1   
    15    6   31 1   
    16    6   32 1   
    17    7    8 1   
    18    7   33 1   
    19    7   34 1   
    20    8    9 1   
    21    8   35 1   
    22    8   36 1   
    23    9   10 1   
    24    9   37 1   
    25    9   38 1   
    26   10   39 1   
    27   10   40 1   
    28   10   41 1   
    29   11   12 1   
    30   12   13 1   
    31   12   42 1   
    32   12   43 1   
    33   13   14 1   
    34   13   19 1   
    35   13   44 1   
    36   14   15 1   
    37   15   16 1   
    38   15   45 1   
    39   15   46 1   
    40   16   17 1   
    41   16   47 1   
    42   16   48 1   
    43   17   18 1   
    44   17   49 1   
    45   17   50 1   
    46   18   51 1   
    47   18   52 1   
    48   18   53 1   
    49   19   20 1   
    50   19   54 1   
    51   19   55 1   
    52   20   21 1   
    53   21   22 1   
    54   21   56 1   
    55   21   57 1   
    56   22   23 1   
    57   22   58 1   
    58   22   59 1   
    59   23   24 1   
    60   23   60 1   
    61   23   61 1   
    62   24   62 1   
    63   24   63 1   
    64   24   64 1   
@<TRIPOS>SUBSTRUCTURE
     1 2HD         1 TEMP              0 ****  ****    0 ROOT
