@<TRIPOS>MOLECULE
molecule
   12    11     1     0     0
SMALL
bcc


@<TRIPOS>ATOM
      1 O3           0.0000     0.0000     0.0000 o          1 2HE      -0.919167
      2 P            1.6100     0.0000     0.0000 p5         1 2HE       1.050700
      3 O1           2.1040     0.0000     1.3950 o          1 2HE      -0.919167
      4 O2           2.1460    -1.3140    -0.7590 o          1 2HE      -0.919167
      5 CA           2.2170     1.4890    -0.8600 c3         1 2HE      -0.235600
      6 CB           3.7420     1.5530    -0.7510 c3         1 2HE       0.157400
      7 O4           4.2180     2.7200    -1.4260 oh         1 2HE      -0.654800
      8 HA           1.9310     1.4450    -1.9040 hc         1 2HE       0.024700
      9 HAA          1.7850     2.3710    -0.4030 hc         1 2HE       0.024700
     10 HB           4.1740     0.6710    -1.2080 h1         1 2HE       0.023200
     11 HBA          4.0280     1.5970     0.2930 h1         1 2HE       0.023200
     12 HO4          5.1610     2.7360    -1.3990 ho         1 2HE       0.343000
@<TRIPOS>BOND
     1     2     1 1
     2     3     2 1
     3     4     2 1
     4     2     5 1
     5     5     6 1
     6     5     8 1
     7     5     9 1
     8     7     6 1
     9     6    10 1
    10     6    11 1
    11     7    12 1
@<TRIPOS>SUBSTRUCTURE
     1 2HE         1 TEMP              0 ****  ****    0 ROOT
