@<TRIPOS>MOLECULE
2HE
   12    11     1     0     0
SMALL
bcc


@<TRIPOS>ATOM
      1 O3          0.1770   -0.0160   -0.0630 o         1 2HE     -0.958833
      2 P           1.6870   -0.0040    0.0180 p5        1 2HE      1.211700
      3 O1          2.2530    0.2130    1.4060 o         1 2HE     -0.958833
      4 O2          2.3810   -1.0950   -0.7700 o         1 2HE     -0.958833
      5 CA          2.1540    1.5180   -0.8700 c3        1 2HE     -0.267600
      6 CB          3.6350    1.5090   -0.7750 c3        1 2HE      0.140400
      7 O4          4.2180    2.6520   -1.4270 oh        1 2HE     -0.660800
      8 HA          1.7900    1.4620   -1.9130 hc        1 2HE      0.019700
      9 HAA         1.6980    2.3920   -0.3670 hc        1 2HE      0.019700
     10 HB          4.0240    0.5690   -1.2570 h1        1 2HE      0.039700
     11 HBA         3.9300    1.5110    0.3110 h1        1 2HE      0.039700
     12 HO4         5.1680    2.5590   -1.3130 ho        1 2HE      0.335000
@<TRIPOS>BOND
     1    1    2 1   
     2    2    3 1   
     3    2    4 1   
     4    2    5 1   
     5    5    6 1   
     6    5    8 1   
     7    5    9 1   
     8    6    7 1   
     9    6   10 1   
    10    6   11 1   
    11    7   12 1   
@<TRIPOS>SUBSTRUCTURE
     1 2HE         1 TEMP              0 ****  ****    0 ROOT
