@<TRIPOS>MOLECULE
molecule
   16    15     1     0     0
SMALL
bcc


@<TRIPOS>ATOM
      1 C1           0.0000     0.0000     0.0000 c          1 2HG       0.875600
      2 O1          -0.6050    -0.9480    -0.4420 o          1 2HG      -0.867800
      3 C2           1.5070     0.0000     0.0000 c3         1 2HG       0.035100
      4 O2          -0.6710     1.0560     0.4860 o          1 2HG      -0.867800
      5 C3           2.0170     0.0000     1.4410 c3         1 2HG      -0.041400
      6 O3           1.9830    -1.1660    -0.6750 oh         1 2HG      -0.609800
      7 C4           3.5430     0.1260     1.4420 c3         1 2HG      -0.183400
      8 O4           3.2640     0.0330     3.7800 o          1 2HG      -0.879800
      9 C5           4.0450     0.1250     2.8640 c          1 2HG       0.892600
     10 O5           5.3610     0.2260     3.1100 o          1 2HG      -0.879800
     11 H2           1.8680     0.8850    -0.5100 h1         1 2HG       0.002700
     12 H3           1.5860     0.8370     1.9770 hc         1 2HG       0.059200
     13 H3A          1.7310    -0.9260     1.9260 hc         1 2HG       0.059200
     14 HO3          2.0210    -0.9990    -1.6020 ho         1 2HG       0.362000
     15 H4           3.9740    -0.7110     0.9060 hc         1 2HG       0.022200
     16 H4A          3.8290     1.0510     0.9590 hc         1 2HG       0.022200
@<TRIPOS>BOND
     1     1     2 1
     2     1     3 1
     3     1     4 1
     4     3     5 1
     5     3     6 1
     6     5     7 1
     7     7     9 1
     8     8     9 1
     9     9    10 1
    10     3    11 1
    11     5    12 1
    12     5    13 1
    13     6    14 1
    14     7    15 1
    15     7    16 1
@<TRIPOS>SUBSTRUCTURE
     1 2HG         1 TEMP              0 ****  ****    0 ROOT
