@<TRIPOS>MOLECULE
2HG
   16    15     1     0     0
SMALL
bcc


@<TRIPOS>ATOM
      1 C1          0.0700    0.3440   -0.1840 c         1 2HG      0.889600
      2 O1         -0.6670   -0.6600   -0.4350 o         1 2HG     -0.864800
      3 C2          1.5910    0.0960   -0.0750 c3        1 2HG      0.025100
      4 O2         -0.3800    1.5190   -0.0640 o         1 2HG     -0.864800
      5 C3          2.0620    0.0480    1.3760 c3        1 2HG     -0.069400
      6 O3          1.9390   -1.1070   -0.7560 oh        1 2HG     -0.647800
      7 C4          3.5690    0.0910    1.4860 c3        1 2HG     -0.174400
      8 O4          3.7410   -1.0370    3.6290 o         1 2HG     -0.879300
      9 C5          4.0930   -0.0490    2.9170 c         1 2HG      0.902600
     10 O5          4.9200    0.8200    3.3400 o         1 2HG     -0.879300
     11 H2          2.1400    0.9070   -0.6280 h1        1 2HG      0.034700
     12 H3          1.6130    0.9210    1.9160 hc        1 2HG      0.042700
     13 H3A         1.6850   -0.8880    1.8630 hc        1 2HG      0.042700
     14 HO3         1.1830   -1.7030   -0.6470 ho        1 2HG      0.408000
     15 H4          3.9990   -0.7480    0.8790 hc        1 2HG      0.016700
     16 H4A         3.9510    1.0520    1.0540 hc        1 2HG      0.016700
@<TRIPOS>BOND
     1    1    2 1   
     2    1    3 1   
     3    1    4 1   
     4    3    5 1   
     5    3    6 1   
     6    3   11 1   
     7    5    7 1   
     8    5   12 1   
     9    5   13 1   
    10    6   14 1   
    11    7    9 1   
    12    7   15 1   
    13    7   16 1   
    14    8    9 1   
    15    9   10 1   
@<TRIPOS>SUBSTRUCTURE
     1 2HG         1 TEMP              0 ****  ****    0 ROOT
