@<TRIPOS>MOLECULE
2HH
   25    26     1     0     0
SMALL
bcc


@<TRIPOS>ATOM
      1 C1           0.0000     0.0000     0.0000 c3         1 2HH      -0.019400
      2 N2           1.4650     0.0000     0.0000 na         1 2HH       0.673400
      3 C3           2.2510     0.0000     1.1160 cc         1 2HH      -0.408900
      4 C4           3.5610     0.0010     0.6660 cd         1 2HH      -0.263300
      5 C5           3.4730     0.0010    -0.7280 cd         1 2HH       0.335200
      6 N6           2.2050    -0.0040    -1.0490 nc         1 2HH      -0.644800
      7 C7           1.7990     0.0010     2.5160 c          1 2HH       0.632700
      8 O8           0.6160    -0.1210     2.7730 o          1 2HH      -0.658100
      9 N9           2.6950     0.1370     3.5140 ns         1 2HH      -0.006100
     10 C10          2.2930    -0.0370     4.8430 ca         1 2HH      -0.217700
     11 C11          3.1770    -0.5550     5.7860 ca         1 2HH      -0.100000
     12 C12          2.7330    -0.7070     7.0900 ca         1 2HH      -0.205300
     13 C13          1.4380    -0.3430     7.4090 ca         1 2HH       0.391200
     14 N14          0.6250     0.1440     6.4920 nb         1 2HH      -0.564000
     15 C15          1.0080     0.3100     5.2420 ca         1 2HH       0.394200
     16 H1          -0.3610    -0.0150    -1.0210 h1         1 2HH       0.039033
     17 H2          -0.3610    -0.8770     0.5240 h1         1 2HH       0.039033
     18 H3          -0.3610     0.8920     0.4980 h1         1 2HH       0.039033
     19 H4           4.4620     0.0030     1.2680 ha         1 2HH       0.132000
     20 H5           4.3060    -0.0000    -1.4190 h4         1 2HH       0.009100
     21 H6           3.6350     0.4090     3.3070 hn         1 2HH       0.173500
     22 H7           4.1870    -0.8320     5.5080 ha         1 2HH       0.110000
     23 H8           3.3930    -1.1060     7.8500 ha         1 2HH       0.113000
     24 H9           1.0850    -0.4620     8.4260 h4         1 2HH      -0.019900
     25 H10          0.3120     0.7140     4.5170 h4         1 2HH       0.029100
@<TRIPOS>BOND
     1     1     2 1   
     2     1    16 1   
     3     1    17 1   
     4     1    18 1   
     5     2     3 1   
     6     2     6 1   
     7     3     4 2   
     8     3     7 1   
     9     4     5 1   
    10     4    19 1   
    11     5     6 2   
    12     5    20 1   
    13     7     8 2   
    14     7     9 1   
    15     9    10 1   
    16     9    21 1   
    17    10    11 ar  
    18    10    15 ar  
    19    11    12 ar  
    20    11    22 1   
    21    12    13 ar  
    22    12    23 1   
    23    13    14 ar  
    24    13    24 1   
    25    14    15 ar  
    26    15    25 1   
@<TRIPOS>SUBSTRUCTURE
     1 2HH         1 TEMP              0 ****  ****    0 ROOT
