@<TRIPOS>MOLECULE
2HI
   32    34     1     0     0
SMALL
bcc


@<TRIPOS>ATOM
      1 C1          0.0530    0.2320   -0.2990 ca        1 2HI     -0.202000
      2 C2          1.4230    0.0950   -0.1450 ca        1 2HI     -0.008000
      3 C3          2.0150    0.0950    1.1290 ca        1 2HI     -0.266600
      4 C4          1.1920    0.2520    2.2570 ca        1 2HI      0.216100
      5 C5         -0.1990    0.3940    2.1320 ca        1 2HI     -0.267000
      6 C6         -0.7530    0.3780    0.8480 ca        1 2HI      0.185100
      7 O1          1.6720    0.2440    3.5480 os        1 2HI     -0.367900
      8 C7          3.4650   -0.0670    1.2690 c         1 2HI      0.609700
      9 O2          4.2350   -0.0890    0.3020 o         1 2HI     -0.529100
     10 C8          3.9990   -0.2130    2.6820 c3        1 2HI     -0.126400
     11 C9          3.0770    0.4110    3.7320 c3        1 2HI      0.345900
     12 O3          3.2750    1.8030    3.7160 oh        1 2HI     -0.610800
     13 C10         4.2890   -1.6470    2.9890 ca        1 2HI     -0.127300
     14 C11         5.5750   -2.1500    2.7410 ca        1 2HI     -0.078000
     15 C12         5.8850   -3.4760    3.0140 ca        1 2HI     -0.185500
     16 C13         4.8900   -4.3150    3.5450 ca        1 2HI      0.133100
     17 C14         3.5990   -3.8270    3.7950 ca        1 2HI     -0.185500
     18 C15         3.3080   -2.4950    3.5130 ca        1 2HI     -0.078000
     19 O4          5.2560   -5.6150    3.8010 oh        1 2HI     -0.494100
     20 O5         -2.1020    0.5060    0.6320 oh        1 2HI     -0.489100
     21 H1         -0.4160    0.2290   -1.2920 ha        1 2HI      0.159000
     22 H2          2.0760   -0.0180   -1.0270 ha        1 2HI      0.162000
     23 H5         -0.8220    0.5120    3.0280 ha        1 2HI      0.153000
     24 H8          4.9680    0.3730    2.7270 hc        1 2HI      0.112700
     25 H9          3.2570   -0.0270    4.7580 h2        1 2HI      0.085700
     26 HO3         2.6400    2.1980    4.3280 ho        1 2HI      0.425000
     27 H11         6.3450   -1.4890    2.3130 ha        1 2HI      0.145000
     28 H12         6.8890   -3.8790    2.8200 ha        1 2HI      0.146000
     29 H14         2.8250   -4.4890    4.2050 ha        1 2HI      0.146000
     30 H15         2.2930   -2.1100    3.7010 ha        1 2HI      0.145000
     31 HO4         4.4790   -6.0840    4.1400 ho        1 2HI      0.421000
     32 HO5        -2.5400    0.6040    1.4910 ho        1 2HI      0.425000
@<TRIPOS>BOND
     1    1    2 ar  
     2    1    6 ar  
     3    1   21 1   
     4    2    3 ar  
     5    2   22 1   
     6    3    4 ar  
     7    3    8 1   
     8    4    5 ar  
     9    4    7 1   
    10    5    6 ar  
    11    5   23 1   
    12    6   20 1   
    13    7   11 1   
    14    8    9 2   
    15    8   10 1   
    16   10   11 1   
    17   10   13 1   
    18   10   24 1   
    19   11   12 1   
    20   11   25 1   
    21   12   26 1   
    22   13   14 ar  
    23   13   18 ar  
    24   14   15 ar  
    25   14   27 1   
    26   15   16 ar  
    27   15   28 1   
    28   16   17 ar  
    29   16   19 1   
    30   17   18 ar  
    31   17   29 1   
    32   18   30 1   
    33   19   31 1   
    34   20   32 1   
@<TRIPOS>SUBSTRUCTURE
     1 2HI         1 TEMP              0 ****  ****    0 ROOT
