@<TRIPOS>MOLECULE
molecule
   32    34     1     0     0
SMALL
bcc


@<TRIPOS>ATOM
      1 C1           0.0000     0.0000     0.0000 ca         1 2HI      -0.193000
      2 C2           1.3650     0.0000     0.0000 ca         1 2HI      -0.028000
      3 C3           2.0610     0.0000     1.2120 ca         1 2HI      -0.239600
      4 C4           1.3720    -0.0210     2.4350 ca         1 2HI       0.180100
      5 C5          -0.0180    -0.0120     2.4140 ca         1 2HI      -0.199000
      6 C6          -0.6970    -0.0010     1.2060 ca         1 2HI       0.160100
      7 O1           2.0000    -0.0520     3.6280 os         1 2HI      -0.309900
      8 C7           3.5350     0.0390     1.2160 c          1 2HI       0.607700
      9 O2           4.1840     0.1810     0.2010 o          1 2HI      -0.511100
     10 C8           4.1810    -0.1100     2.5830 c3         1 2HI      -0.146400
     11 C9           3.2530     0.6110     3.5720 c3         1 2HI       0.339900
     12 O3           3.0570     1.9600     3.1410 oh         1 2HI      -0.610800
     13 C10          4.2980    -1.5690     2.9460 ca         1 2HI      -0.099300
     14 C11          5.5400    -2.1240     3.1870 ca         1 2HI      -0.098500
     15 C12          5.6490    -3.4600     3.5200 ca         1 2HI      -0.153500
     16 C13          4.5090    -4.2460     3.6110 ca         1 2HI       0.114100
     17 C14          3.2630    -3.6860     3.3690 ca         1 2HI      -0.153500
     18 C15          3.1590    -2.3480     3.0430 ca         1 2HI      -0.098500
     19 O4           4.6130    -5.5600     3.9380 oh         1 2HI      -0.522100
     20 O5          -2.0540     0.0090     1.1980 oh         1 2HI      -0.521100
     21 H1          -0.5420     0.0090    -0.9380 ha         1 2HI       0.147000
     22 H2           1.9070     0.0000    -0.9380 ha         1 2HI       0.157000
     23 H5          -0.5720    -0.0120     3.3450 ha         1 2HI       0.156000
     24 H8           5.1580     0.3580     2.5840 hc         1 2HI       0.095700
     25 H9           3.7050     0.6050     4.5570 h2         1 2HI       0.081700
     26 HO3          3.2600     2.5490     3.8490 ho         1 2HI       0.419000
     27 H11          6.4300    -1.5100     3.1160 ha         1 2HI       0.145500
     28 H12          6.6240    -3.8940     3.7080 ha         1 2HI       0.144000
     29 H14          2.3710    -4.2960     3.4430 ha         1 2HI       0.144000
     30 H15          2.1860    -1.9110     2.8550 ha         1 2HI       0.145500
     31 HO4          4.7100    -6.0730     3.1530 ho         1 2HI       0.422000
     32 HO5         -2.3620     0.8990     1.2420 ho         1 2HI       0.427000
@<TRIPOS>BOND
     1     1     2 ar
     2     1     6 ar
     3     1    21 1
     4     2     3 ar
     5     2    22 1
     6     3     4 ar
     7     3     8 1
     8     4     5 ar
     9     4     7 1
    10     5     6 ar
    11     5    23 1
    12     6    20 1
    13     7    11 1
    14     8     9 2
    15     8    10 1
    16    10    11 1
    17    10    13 1
    18    10    24 1
    19    11    12 1
    20    11    25 1
    21    12    26 1
    22    13    14 ar
    23    13    18 ar
    24    14    15 ar
    25    14    27 1
    26    15    16 ar
    27    15    28 1
    28    16    17 ar
    29    16    19 1
    30    17    18 ar
    31    17    29 1
    32    18    30 1
    33    19    31 1
    34    20    32 1
@<TRIPOS>SUBSTRUCTURE
     1 2HI         1 TEMP              0 ****  ****    0 ROOT
