@<TRIPOS>MOLECULE
2HJ
   55    57     1     0     0
SMALL
bcc


@<TRIPOS>ATOM
      1 C1           0.0000     0.0000     0.0000 c3         1 2HJ       0.007233
      2 C2           1.5300     0.0000     0.0000 c3         1 2HJ      -0.024700
      3 C3           2.0390     0.0000     1.4430 c3         1 2HJ       0.007233
      4 C4           2.0400    -1.2490    -0.7210 c3         1 2HJ       0.007233
      5 C5           2.0320     1.2310    -0.7100 ca         1 2HJ      -0.020300
      6 C6           2.8230     1.1040    -1.8370 ca         1 2HJ      -0.140500
      7 C7           3.2800     2.2340    -2.4910 ca         1 2HJ       0.008000
      8 C8           2.9450     3.4890    -2.0190 ca         1 2HJ      -0.169500
      9 C9           2.1540     3.6150    -0.8920 ca         1 2HJ       0.008000
     10 C10          1.6990     2.4870    -0.2370 ca         1 2HJ      -0.140500
     11 S11          3.5280     4.9280    -2.8510 sy         1 2HJ       1.042200
     12 O12          3.5180     5.9780    -1.8940 o          1 2HJ      -0.586300
     13 O13          4.6940     4.5360    -3.5630 o          1 2HJ      -0.586300
     14 N14          2.3960     5.3260    -3.9930 n7         1 2HJ      -0.585100
     15 C15          1.0560     5.7470    -3.5790 c3         1 2HJ       0.282100
     16 C16          0.3510     6.3950    -4.7420 ca         1 2HJ      -0.094300
     17 C17         -0.4090     5.6230    -5.6040 ca         1 2HJ      -0.092500
     18 C18         -1.0570     6.2090    -6.6710 ca         1 2HJ      -0.059500
     19 C19         -0.9450     7.5850    -6.8810 ca         1 2HJ      -0.157600
     20 C20         -0.1780     8.3580    -6.0080 ca         1 2HJ      -0.059500
     21 C21          0.4610     7.7600    -4.9420 ca         1 2HJ      -0.092500
     22 C22         -1.6320     8.2180    -8.0270 c          1 2HJ       0.586700
     23 O23         -1.5290     9.4160    -8.2100 o          1 2HJ      -0.636100
     24 N24         -2.3730     7.4690    -8.8670 ns         1 2HJ      -0.027100
     25 C25         -3.1010     8.0810    -9.8920 ca         1 2HJ      -0.213700
     26 C26         -2.6020     9.2100   -10.5380 ca         1 2HJ      -0.072000
     27 C27         -3.3600     9.7800   -11.5480 ca         1 2HJ      -0.202300
     28 C28         -4.5780     9.2170   -11.8780 ca         1 2HJ       0.388200
     29 N29         -5.0230     8.1480   -11.2460 nb         1 2HJ      -0.567000
     30 C30         -4.3310     7.5700   -10.2840 ca         1 2HJ       0.375200
     31 H1          -0.3610     0.8010     0.6330 hc         1 2HJ       0.008478
     32 H2          -0.3610    -0.9490     0.3770 hc         1 2HJ       0.008478
     33 H3          -0.3610     0.1480    -1.0110 hc         1 2HJ       0.008478
     34 H4           3.1120     0.1510     1.4470 hc         1 2HJ       0.008478
     35 H5           1.5600     0.7990     1.9950 hc         1 2HJ       0.008478
     36 H6           1.8060    -0.9500     1.9080 hc         1 2HJ       0.008478
     37 H7           1.6800    -2.1340    -0.2100 hc         1 2HJ       0.008478
     38 H8           3.1230    -1.2480    -0.7220 hc         1 2HJ       0.008478
     39 H9           1.6780    -1.2500    -1.7420 hc         1 2HJ       0.008478
     40 H10          3.0850     0.1200    -2.2070 ha         1 2HJ       0.121500
     41 H11          3.9000     2.1350    -3.3740 ha         1 2HJ       0.121500
     42 H12          1.8920     4.5980    -0.5210 ha         1 2HJ       0.121500
     43 H13          1.0790     2.5860     0.6460 ha         1 2HJ       0.121500
     44 H14          2.6310     5.2900    -4.9650 hn         1 2HJ       0.353800
     45 H15          0.4910     4.8830    -3.2500 h1         1 2HJ       0.019200
     46 H16          1.1350     6.4570    -2.7650 h1         1 2HJ       0.019200
     47 H17         -0.4950     4.5550    -5.4400 ha         1 2HJ       0.114000
     48 H18         -1.6510     5.6030    -7.3450 ha         1 2HJ       0.115500
     49 H19         -0.0890     9.4260    -6.1640 ha         1 2HJ       0.115500
     50 H20          1.0570     8.3590    -4.2630 ha         1 2HJ       0.114000
     51 H21         -2.3740     6.4720    -8.7790 hn         1 2HJ       0.174500
     52 H22         -1.6430     9.6310   -10.2590 ha         1 2HJ       0.150000
     53 H23         -3.0020    10.6580   -12.0720 ha         1 2HJ       0.115000
     54 H24         -5.1760     9.6610   -12.6650 h4         1 2HJ      -0.019900
     55 H25         -4.7300     6.6930    -9.7890 h4         1 2HJ      -0.021900
@<TRIPOS>BOND
     1     1     2 1   
     2     1    31 1   
     3     1    32 1   
     4     1    33 1   
     5     2     3 1   
     6     2     4 1   
     7     2     5 1   
     8     3    34 1   
     9     3    35 1   
    10     3    36 1   
    11     4    37 1   
    12     4    38 1   
    13     4    39 1   
    14     5     6 ar  
    15     5    10 ar  
    16     6     7 ar  
    17     6    40 1   
    18     7     8 ar  
    19     7    41 1   
    20     8     9 ar  
    21     8    11 1   
    22     9    10 ar  
    23     9    42 1   
    24    10    43 1   
    25    11    12 2   
    26    11    13 2   
    27    11    14 1   
    28    14    15 1   
    29    14    44 1   
    30    15    16 1   
    31    15    45 1   
    32    15    46 1   
    33    16    17 ar  
    34    16    21 ar  
    35    17    18 ar  
    36    17    47 1   
    37    18    19 ar  
    38    18    48 1   
    39    19    20 ar  
    40    19    22 1   
    41    20    21 ar  
    42    20    49 1   
    43    21    50 1   
    44    22    23 2   
    45    22    24 1   
    46    24    25 1   
    47    24    51 1   
    48    25    26 ar  
    49    25    30 ar  
    50    26    27 ar  
    51    26    52 1   
    52    27    28 ar  
    53    27    53 1   
    54    28    29 ar  
    55    28    54 1   
    56    29    30 ar  
    57    30    55 1   
@<TRIPOS>SUBSTRUCTURE
     1 2HJ         1 TEMP              0 ****  ****    0 ROOT
