@<TRIPOS>MOLECULE
molecule
   55    57     1     0     0
SMALL
bcc


@<TRIPOS>ATOM
      1 C1           0.0000     0.0000     0.0000 c3         1 2HJ      -0.081433
      2 C2           1.5300     0.0000     0.0000 c3         1 2HJ      -0.033700
      3 C3           2.0390     0.0000     1.4430 c3         1 2HJ      -0.081433
      4 C4           2.0400    -1.2490    -0.7210 c3         1 2HJ      -0.081433
      5 C5           2.0320     1.2310    -0.7100 ca         1 2HJ      -0.013300
      6 C6           2.8230     1.1040    -1.8370 ca         1 2HJ      -0.152000
      7 C7           3.2800     2.2340    -2.4910 ca         1 2HJ      -0.027000
      8 C8           2.9450     3.4890    -2.0190 ca         1 2HJ      -0.323500
      9 C9           2.1540     3.6150    -0.8920 ca         1 2HJ      -0.027000
     10 C10          1.6990     2.4870    -0.2370 ca         1 2HJ      -0.152000
     11 S11          3.5280     4.9280    -2.8510 sy         1 2HJ       1.423200
     12 O12          3.5180     5.9780    -1.8940 o          1 2HJ      -0.635300
     13 O13          4.6940     4.5360    -3.5630 o          1 2HJ      -0.635300
     14 N14          2.3960     5.3260    -3.9930 n7         1 2HJ      -0.913100
     15 C15          1.0560     5.7470    -3.5790 c3         1 2HJ       0.279100
     16 C16          0.3510     6.3950    -4.7420 ca         1 2HJ      -0.081300
     17 C17         -0.4090     5.6230    -5.6040 ca         1 2HJ      -0.121000
     18 C18         -1.0570     6.2090    -6.6710 ca         1 2HJ      -0.086500
     19 C19         -0.9450     7.5850    -6.8810 ca         1 2HJ      -0.143600
     20 C20         -0.1780     8.3580    -6.0080 ca         1 2HJ      -0.086500
     21 C21          0.4610     7.7600    -4.9420 ca         1 2HJ      -0.121000
     22 C22         -1.6320     8.2180    -8.0270 c          1 2HJ       0.675700
     23 O23         -1.5290     9.4160    -8.2100 o          1 2HJ      -0.593100
     24 N24         -2.3730     7.4690    -8.8670 ns         1 2HJ      -0.472100
     25 C25         -3.1010     8.0810    -9.8920 ca         1 2HJ      -0.071700
     26 C26         -2.6020     9.2100   -10.5380 ca         1 2HJ      -0.094000
     27 C27         -3.3600     9.7800   -11.5480 ca         1 2HJ      -0.237300
     28 C28         -4.5780     9.2170   -11.8780 ca         1 2HJ       0.400200
     29 N29         -5.0230     8.1480   -11.2460 nb         1 2HJ      -0.675000
     30 C30         -4.3310     7.5700   -10.2840 ca         1 2HJ       0.390200
     31 H1          -0.3610     0.8010     0.6330 hc         1 2HJ       0.039367
     32 H2          -0.3610    -0.9490     0.3770 hc         1 2HJ       0.039367
     33 H3          -0.3610     0.1480    -1.0110 hc         1 2HJ       0.039367
     34 H4           3.1120     0.1510     1.4470 hc         1 2HJ       0.039367
     35 H5           1.5600     0.7990     1.9950 hc         1 2HJ       0.039367
     36 H6           1.8060    -0.9500     1.9080 hc         1 2HJ       0.039367
     37 H7           1.6800    -2.1340    -0.2100 hc         1 2HJ       0.039367
     38 H8           3.1230    -1.2480    -0.7220 hc         1 2HJ       0.039367
     39 H9           1.6780    -1.2500    -1.7420 hc         1 2HJ       0.039367
     40 H10          3.0850     0.1200    -2.2070 ha         1 2HJ       0.141500
     41 H11          3.9000     2.1350    -3.3740 ha         1 2HJ       0.149000
     42 H12          1.8920     4.5980    -0.5210 ha         1 2HJ       0.149000
     43 H13          1.0790     2.5860     0.6460 ha         1 2HJ       0.141500
     44 H14          2.6310     5.2900    -4.9650 hn         1 2HJ       0.459800
     45 H15          0.4910     4.8830    -3.2500 h1         1 2HJ       0.055700
     46 H16          1.1350     6.4570    -2.7650 h1         1 2HJ       0.055700
     47 H17         -0.4950     4.5550    -5.4400 ha         1 2HJ       0.143000
     48 H18         -1.6510     5.6030    -7.3450 ha         1 2HJ       0.144000
     49 H19         -0.0890     9.4260    -6.1640 ha         1 2HJ       0.144000
     50 H20          1.0570     8.3590    -4.2630 ha         1 2HJ       0.143000
     51 H21         -2.3740     6.4720    -8.7790 hn         1 2HJ       0.327500
     52 H22         -1.6430     9.6310   -10.2590 ha         1 2HJ       0.173000
     53 H23         -3.0020    10.6580   -12.0720 ha         1 2HJ       0.142000
     54 H24         -5.1760     9.6610   -12.6650 h4         1 2HJ       0.024100
     55 H25         -4.7300     6.6930    -9.7890 h4         1 2HJ       0.020100
@<TRIPOS>BOND
     1    28    27 ar
     2    28    29 ar
     3    27    26 ar
     4    29    30 ar
     5    26    25 ar
     6    30    25 ar
     7    25    24 1
     8    24    22 1
     9    23    22 2
    10    22    19 1
    11    19    20 ar
    12    19    18 ar
    13    20    21 ar
    14    18    17 ar
    15    21    16 ar
    16    17    16 ar
    17    16    15 1
    18    14    15 1
    19    14    11 1
    20    12    11 2
    21    11    13 2
    22    11     8 1
    23     7     8 ar
    24     7     6 ar
    25     8     9 ar
    26     6     5 ar
    27     9    10 ar
    28     5    10 ar
    29     5     2 1
    30     4     2 1
    31     2     1 1
    32     2     3 1
    33     1    31 1
    34     1    32 1
    35     1    33 1
    36     3    34 1
    37     3    35 1
    38     3    36 1
    39     4    37 1
    40     4    38 1
    41     4    39 1
    42     6    40 1
    43     7    41 1
    44     9    42 1
    45    10    43 1
    46    14    44 1
    47    15    45 1
    48    15    46 1
    49    17    47 1
    50    18    48 1
    51    20    49 1
    52    21    50 1
    53    24    51 1
    54    26    52 1
    55    27    53 1
    56    28    54 1
    57    30    55 1
@<TRIPOS>SUBSTRUCTURE
     1 2HJ         1 TEMP              0 ****  ****    0 ROOT
