@<TRIPOS>MOLECULE
2HK
   67    72     1     0     0
SMALL
bcc


@<TRIPOS>ATOM
      1 O3           0.0000     0.0000     0.0000 oh         1 2HK      -0.500100
      2 C28          1.3590     0.0000     0.0000 ca         1 2HK       0.128100
      3 C27          2.0520     0.0000     1.2040 ca         1 2HK      -0.135500
      4 C26          3.4300     0.0000     1.2080 ca         1 2HK      -0.076500
      5 C29          2.0510    -0.0060    -1.2030 ca         1 2HK      -0.135500
      6 C30          3.4300    -0.0070    -1.2080 ca         1 2HK      -0.076500
      7 C25          4.1290    -0.0010     0.0000 cp         1 2HK      -0.056000
      8 C22          5.6100    -0.0020    -0.0000 cp         1 2HK      -0.013000
      9 C21          6.3070     0.0040     1.2090 ca         1 2HK      -0.100500
     10 C20          7.6730     0.0040     1.2120 ca         1 2HK      -0.084500
     11 C23          6.3070    -0.0150    -1.2100 ca         1 2HK      -0.100500
     12 C24          7.6730    -0.0220    -1.2120 ca         1 2HK      -0.084500
     13 C19          8.3740    -0.0040    -0.0000 ca         1 2HK      -0.030000
     14 C18          9.8440    -0.0110    -0.0000 cc         1 2HK      -0.080300
     15 N3          10.6380    -0.0290    -1.1060 na         1 2HK       0.154600
     16 N2          11.9790    -0.0240    -0.7030 na         1 2HK       0.096600
     17 C17         12.0090    -0.0040     0.6970 cd         1 2HK      -0.182300
     18 C10         12.8360     0.0120     1.8150 ca         1 2HK      -0.122000
     19 C9          14.2360     0.0130     2.0000 ca         1 2HK      -0.150000
     20 C16         10.6640     0.0050     1.1410 cd         1 2HK      -0.135800
     21 C15         10.6520     0.0300     2.5560 cd         1 2HK      -0.202200
     22 C11         11.9650     0.0310     3.0040 ca         1 2HK       0.020000
     23 C12         12.5630     0.0490     4.2850 ca         1 2HK      -0.207000
     24 C13         13.9190     0.0490     4.3930 ca         1 2HK       0.153100
     25 O2          14.4850     0.0660     5.6290 os         1 2HK      -0.296900
     26 C14         13.5970     0.0840     6.7490 c3         1 2HK       0.238700
     27 C8          14.7490     0.0310     3.2590 ca         1 2HK       0.090100
     28 O1          16.1000     0.0320     3.4260 os         1 2HK      -0.279900
     29 C1          16.8990     0.0130     2.2420 c3         1 2HK       0.196400
     30 C2          18.3800     0.0170     2.6260 c3         1 2HK       0.147800
     31 N1          18.7050    -1.2290     3.3340 n3         1 2HK      -0.522600
     32 C7          19.9370    -1.0810     4.1200 c3         1 2HK       0.151800
     33 C6          20.1660    -2.3420     4.9550 c3         1 2HK      -0.023900
     34 C5          20.2750    -3.5530     4.0230 c3         1 2HK      -0.026400
     35 C4          19.0000    -3.6560     3.1810 c3         1 2HK      -0.023900
     36 C3          18.8050    -2.3560     2.3980 c3         1 2HK       0.151800
     37 H29         -0.3140     0.8890    -0.0030 ho         1 2HK       0.404000
     38 H28          1.5080     0.0010     2.1410 ha         1 2HK       0.114500
     39 H27          3.9700     0.0020     2.1470 ha         1 2HK       0.112500
     40 H30          1.5080    -0.0110    -2.1400 ha         1 2HK       0.114500
     41 H31          3.9700    -0.0100    -2.1470 ha         1 2HK       0.112500
     42 H24          5.7640     0.0110     2.1470 ha         1 2HK       0.114500
     43 H23          8.2130     0.0130     2.1510 ha         1 2HK       0.114000
     44 H25          5.7640    -0.0290    -2.1470 ha         1 2HK       0.114500
     45 H26          8.2130    -0.0300    -2.1510 ha         1 2HK       0.114000
     46 H32         10.3160    -0.0440    -2.0540 hn         1 2HK       0.160700
     47 H22         12.7760    -0.0350    -1.3090 hn         1 2HK       0.161700
     48 H16         14.8980    -0.0000     1.1430 ha         1 2HK       0.105000
     49 H21          9.7680     0.0470     3.1820 ha         1 2HK       0.115000
     50 H17         11.9480    -0.0570     5.1710 ha         1 2HK       0.121000
     51 H18         14.1730     0.1290     7.6650 h1         1 2HK      -0.005300
     52 H20         12.9530     0.9530     6.6850 h1         1 2HK      -0.005300
     53 H19         12.9930    -0.8150     6.7450 h1         1 2HK      -0.005300
     54 H2          16.6790     0.8880     1.6430 h1         1 2HK      -0.001300
     55 H3          16.6760    -0.8800     1.6700 h1         1 2HK      -0.001300
     56 H5          18.5830     0.8630     3.2710 h1         1 2HK       0.014700
     57 H4          18.9850     0.0920     1.7310 h1         1 2HK       0.014700
     58 H15         19.8420    -0.2260     4.7790 h1         1 2HK       0.006200
     59 H14         20.7760    -0.9350     3.4500 h1         1 2HK       0.006200
     60 H13         21.0840    -2.2390     5.5200 hc         1 2HK       0.019950
     61 H12         19.3320    -2.4830     5.6320 hc         1 2HK       0.019950
     62 H11         20.3900    -4.4540     4.6140 hc         1 2HK       0.010200
     63 H10         21.1300    -3.4300     3.3700 hc         1 2HK       0.010200
     64 H9          19.0910    -4.4840     2.4890 hc         1 2HK       0.019950
     65 H8          18.1490    -3.8140     3.8330 hc         1 2HK       0.019950
     66 H7          17.8950    -2.4210     1.8140 h1         1 2HK       0.006200
     67 H6          19.6520    -2.2030     1.7400 h1         1 2HK       0.006200
@<TRIPOS>BOND
     1     1     2 1   
     2     1    37 1   
     3     2     3 ar  
     4     2     5 ar  
     5     3     4 ar  
     6     3    38 1   
     7     4     7 ar  
     8     4    39 1   
     9     5     6 ar  
    10     5    40 1   
    11     6     7 ar  
    12     6    41 1   
    13     7     8 1   
    14     8     9 ar  
    15     8    11 ar  
    16     9    10 ar  
    17     9    42 1   
    18    10    13 ar  
    19    10    43 1   
    20    11    12 ar  
    21    11    44 1   
    22    12    13 ar  
    23    12    45 1   
    24    13    14 1   
    25    14    15 1   
    26    14    20 2   
    27    15    16 1   
    28    15    46 1   
    29    16    17 1   
    30    16    47 1   
    31    17    18 2   
    32    17    20 1   
    33    18    19 ar  
    34    18    22 ar  
    35    19    27 ar  
    36    19    48 1   
    37    20    21 1   
    38    21    22 2   
    39    21    49 1   
    40    22    23 ar  
    41    23    24 ar  
    42    23    50 1   
    43    24    25 1   
    44    24    27 ar  
    45    25    26 1   
    46    26    51 1   
    47    26    52 1   
    48    26    53 1   
    49    27    28 1   
    50    28    29 1   
    51    29    30 1   
    52    29    54 1   
    53    29    55 1   
    54    30    31 1   
    55    30    56 1   
    56    30    57 1   
    57    31    32 1   
    58    31    36 1   
    59    32    33 1   
    60    32    58 1   
    61    32    59 1   
    62    33    34 1   
    63    33    60 1   
    64    33    61 1   
    65    34    35 1   
    66    34    62 1   
    67    34    63 1   
    68    35    36 1   
    69    35    64 1   
    70    35    65 1   
    71    36    66 1   
    72    36    67 1   
@<TRIPOS>SUBSTRUCTURE
     1 2HK         1 TEMP              0 ****  ****    0 ROOT
