@<TRIPOS>MOLECULE
molecule
   58    62     1     0     0
SMALL
bcc


@<TRIPOS>ATOM
      1 C1           0.0000     0.0000     0.0000 ca         1 2HL      -0.106000
      2 C2           1.3840     0.0000     0.0000 ca         1 2HL      -0.138500
      3 C3           2.0770     0.0000     1.1940 ca         1 2HL      -0.094500
      4 C4           1.3790    -0.0010     2.4030 ca         1 2HL      -0.145600
      5 C5          -0.0170    -0.0020     2.3950 ca         1 2HL      -0.094500
      6 C6          -0.6980    -0.0010     1.1950 ca         1 2HL      -0.138500
      7 C7           2.1140    -0.0010     3.6840 c          1 2HL       0.679700
      8 O8           1.6520    -0.5770     4.6490 o          1 2HL      -0.602100
      9 N9           3.2980     0.6360     3.7820 n          1 2HL      -0.490800
     10 C10          3.8110     1.4390     2.6630 c3         1 2HL       0.099000
     11 C11          4.1420     2.8440     3.1760 c3         1 2HL      -0.097400
     12 C12          5.1000     2.7370     4.3640 c3         1 2HL      -0.095700
     13 C13          4.4270     1.9560     5.4960 c3         1 2HL      -0.097400
     14 C14          4.0970     0.5460     5.0130 c3         1 2HL       0.099000
     15 C15          5.4590     4.1400     4.8580 c3         1 2HL       0.050300
     16 N16          6.4670     4.0430     5.9150 na         1 2HL      -0.154300
     17 C17          6.2290     4.0190     7.2550 cc         1 2HL       0.430700
     18 N18          7.3500     3.9270     7.9070 nd         1 2HL      -0.589100
     19 C19          8.3850     3.8850     7.0290 ca         1 2HL       0.076400
     20 C20          7.8310     3.9540     5.7380 ca         1 2HL      -0.075200
     21 C21          8.6570     3.9250     4.6200 ca         1 2HL      -0.133000
     22 C22         10.0090     3.8280     4.7700 ca         1 2HL      -0.095000
     23 C23         10.5790     3.7540     6.0480 ca         1 2HL      -0.179600
     24 C24          9.7680     3.7900     7.1790 ca         1 2HL       0.009000
     25 C25         12.0440     3.6480     6.1960 c          1 2HL       0.682700
     26 O26         12.5400     3.5850     7.3040 o          1 2HL      -0.595100
     27 N27         12.8320     3.6220     5.1030 ns         1 2HL      -0.470100
     28 C28         14.2090     3.4120     5.2370 ca         1 2HL      -0.063700
     29 C29         14.7120     2.7050     6.3270 ca         1 2HL      -0.102000
     30 C30         16.0820     2.5230     6.4160 ca         1 2HL      -0.233300
     31 C31         16.8990     3.0440     5.4290 ca         1 2HL       0.393200
     32 N32         16.3900     3.7090     4.4100 nb         1 2HL      -0.672000
     33 C33         15.0920     3.9000     4.2830 ca         1 2HL       0.380200
     34 H1          -0.5390     0.0000    -0.9400 ha         1 2HL       0.133000
     35 H2           1.9240     0.0010    -0.9390 ha         1 2HL       0.135000
     36 H3           3.1600     0.0000     1.1920 ha         1 2HL       0.146000
     37 H4          -0.5650    -0.0030     3.3290 ha         1 2HL       0.146000
     38 H5          -1.7810    -0.0020     1.1880 ha         1 2HL       0.135000
     39 H6           3.0560     1.5040     1.8880 h1         1 2HL       0.064700
     40 H7           4.7070     0.9770     2.2670 h1         1 2HL       0.064700
     41 H8           4.6120     3.4150     2.3840 hc         1 2HL       0.054450
     42 H9           3.2300     3.3370     3.4920 hc         1 2HL       0.054450
     43 H10          5.9980     2.2170     4.0550 hc         1 2HL       0.066700
     44 H11          5.1000     1.8990     6.3430 hc         1 2HL       0.054450
     45 H12          3.5130     2.4600     5.7870 hc         1 2HL       0.054450
     46 H13          5.0160     0.0090     4.8080 h1         1 2HL       0.064700
     47 H14          3.5290     0.0260     5.7750 h1         1 2HL       0.064700
     48 H15          5.8540     4.7220     4.0340 h1         1 2HL       0.065200
     49 H16          4.5710     4.6240     5.2480 h1         1 2HL       0.065200
     50 H17          5.2480     4.0720     7.7130 h5         1 2HL       0.078800
     51 H18          8.2260     3.9820     3.6280 ha         1 2HL       0.129000
     52 H19         10.6460     3.7990     3.8940 ha         1 2HL       0.126000
     53 H20         10.2070     3.7330     8.1670 ha         1 2HL       0.172000
     54 H21         12.4340     3.7630     4.1950 hn         1 2HL       0.326500
     55 H22         14.0480     2.3080     7.0850 ha         1 2HL       0.177000
     56 H23         16.5090     1.9780     7.2490 ha         1 2HL       0.142000
     57 H24         17.9710     2.9060     5.4950 h4         1 2HL       0.023100
     58 H25         14.7110     4.4520     3.4320 h4         1 2HL       0.018100
@<TRIPOS>BOND
     1     8     7 2   
     2     3     2 ar  
     3     3     4 ar  
     4     2     1 ar  
     5     1     6 ar  
     6     4     7 1   
     7     4     5 ar  
     8     7     9 1   
     9     6     5 ar  
    10    10     9 1   
    11    10    11 1   
    12     9    14 1   
    13    11    12 1   
    14    14    13 1   
    15    12    13 1   
    16    12    15 1   
    17    17    18 2   
    18    17    16 1   
    19    15    16 1   
    20    18    19 1   
    21    16    20 1   
    22    19    20 ar  
    23    19    24 ar  
    24    20    21 ar  
    25    24    23 ar  
    26    21    22 ar  
    27    23    22 ar  
    28    23    25 1   
    29    26    25 2   
    30    25    27 1   
    31    27    28 1   
    32    28    33 ar  
    33    28    29 ar  
    34    33    32 ar  
    35    29    30 ar  
    36    32    31 ar  
    37    30    31 ar  
    38     1    34 1   
    39     2    35 1   
    40     3    36 1   
    41     5    37 1   
    42     6    38 1   
    43    10    39 1   
    44    10    40 1   
    45    11    41 1   
    46    11    42 1   
    47    12    43 1   
    48    13    44 1   
    49    13    45 1   
    50    14    46 1   
    51    14    47 1   
    52    15    48 1   
    53    15    49 1   
    54    17    50 1   
    55    21    51 1   
    56    22    52 1   
    57    24    53 1   
    58    27    54 1   
    59    29    55 1   
    60    30    56 1   
    61    31    57 1   
    62    33    58 1   
@<TRIPOS>SUBSTRUCTURE
     1 2HL         1 TEMP              0 ****  ****    0 ROOT
