@<TRIPOS>MOLECULE
2HL
   58    62     1     0     0
SMALL
bcc


@<TRIPOS>ATOM
      1 C1           0.0000     0.0000     0.0000 ca         1 2HL      -0.079000
      2 C2           1.3840     0.0000     0.0000 ca         1 2HL      -0.109000
      3 C3           2.0770     0.0000     1.1940 ca         1 2HL      -0.073000
      4 C4           1.3790    -0.0010     2.4030 ca         1 2HL      -0.152600
      5 C5          -0.0170    -0.0020     2.3950 ca         1 2HL      -0.073000
      6 C6          -0.6980    -0.0010     1.1950 ca         1 2HL      -0.109000
      7 C7           2.1140    -0.0010     3.6840 c          1 2HL       0.614700
      8 O8           1.6520    -0.5770     4.6490 o          1 2HL      -0.641100
      9 N9           3.2980     0.6360     3.7820 n          1 2HL      -0.152800
     10 C10          3.8110     1.4390     2.6630 c3         1 2HL       0.032500
     11 C11          4.1420     2.8440     3.1760 c3         1 2HL      -0.043400
     12 C12          5.1000     2.7370     4.3640 c3         1 2HL      -0.076700
     13 C13          4.4270     1.9560     5.4960 c3         1 2HL      -0.043400
     14 C14          4.0970     0.5460     5.0130 c3         1 2HL       0.032500
     15 C15          5.4590     4.1400     4.8580 c3         1 2HL      -0.030700
     16 N16          6.4670     4.0430     5.9150 na         1 2HL       0.302700
     17 C17          6.2290     4.0190     7.2550 cc         1 2HL       0.257700
     18 N18          7.3500     3.9270     7.9070 nd         1 2HL      -0.502100
     19 C19          8.3850     3.8850     7.0290 ca         1 2HL       0.044400
     20 C20          7.8310     3.9540     5.7380 ca         1 2HL      -0.242200
     21 C21          8.6570     3.9250     4.6200 ca         1 2HL      -0.094000
     22 C22         10.0090     3.8280     4.7700 ca         1 2HL      -0.076000
     23 C23         10.5790     3.7540     6.0480 ca         1 2HL      -0.195600
     24 C24          9.7680     3.7900     7.1790 ca         1 2HL       0.052000
     25 C25         12.0440     3.6480     6.1960 c          1 2HL       0.593700
     26 O26         12.5400     3.5850     7.3040 o          1 2HL      -0.636100
     27 N27         12.8320     3.6220     5.1030 ns         1 2HL      -0.027100
     28 C28         14.2090     3.4120     5.2370 ca         1 2HL      -0.205700
     29 C29         14.7120     2.7050     6.3270 ca         1 2HL      -0.084000
     30 C30         16.0820     2.5230     6.4160 ca         1 2HL      -0.197300
     31 C31         16.8990     3.0440     5.4290 ca         1 2HL       0.380200
     32 N32         16.3900     3.7090     4.4100 nb         1 2HL      -0.564000
     33 C33         15.0920     3.9000     4.2830 ca         1 2HL       0.364200
     34 H1          -0.5390     0.0000    -0.9400 ha         1 2HL       0.104000
     35 H2           1.9240     0.0010    -0.9390 ha         1 2HL       0.107000
     36 H3           3.1600     0.0000     1.1920 ha         1 2HL       0.122000
     37 H4          -0.5650    -0.0030     3.3290 ha         1 2HL       0.122000
     38 H5          -1.7810    -0.0020     1.1880 ha         1 2HL       0.107000
     39 H6           3.0560     1.5040     1.8880 h1         1 2HL       0.041950
     40 H7           4.7070     0.9770     2.2670 h1         1 2HL       0.041950
     41 H8           4.6120     3.4150     2.3840 hc         1 2HL       0.027950
     42 H9           3.2300     3.3370     3.4920 hc         1 2HL       0.027950
     43 H10          5.9980     2.2170     4.0550 hc         1 2HL       0.043700
     44 H11          5.1000     1.8990     6.3430 hc         1 2HL       0.027950
     45 H12          3.5130     2.4600     5.7870 hc         1 2HL       0.027950
     46 H13          5.0160     0.0090     4.8080 h1         1 2HL       0.041950
     47 H14          3.5290     0.0260     5.7750 h1         1 2HL       0.041950
     48 H15          5.8540     4.7220     4.0340 h1         1 2HL       0.038700
     49 H16          4.5710     4.6240     5.2480 h1         1 2HL       0.038700
     50 H17          5.2480     4.0720     7.7130 h5         1 2HL       0.031800
     51 H18          8.2260     3.9820     3.6280 ha         1 2HL       0.102000
     52 H19         10.6460     3.7990     3.8940 ha         1 2HL       0.100000
     53 H20         10.2070     3.7330     8.1670 ha         1 2HL       0.135000
     54 H21         12.4340     3.7630     4.1950 hn         1 2HL       0.173500
     55 H22         14.0480     2.3080     7.0850 ha         1 2HL       0.156000
     56 H23         16.5090     1.9780     7.2490 ha         1 2HL       0.114000
     57 H24         17.9710     2.9060     5.4950 h4         1 2HL      -0.019900
     58 H25         14.7110     4.4520     3.4320 h4         1 2HL      -0.021900
@<TRIPOS>BOND
     1     1     2 ar  
     2     1     6 ar  
     3     1    34 1   
     4     2     3 ar  
     5     2    35 1   
     6     3     4 ar  
     7     3    36 1   
     8     4     5 ar  
     9     4     7 1   
    10     5     6 ar  
    11     5    37 1   
    12     6    38 1   
    13     7     8 2   
    14     7     9 1   
    15     9    10 1   
    16     9    14 1   
    17    10    11 1   
    18    10    39 1   
    19    10    40 1   
    20    11    12 1   
    21    11    41 1   
    22    11    42 1   
    23    12    13 1   
    24    12    15 1   
    25    12    43 1   
    26    13    14 1   
    27    13    44 1   
    28    13    45 1   
    29    14    46 1   
    30    14    47 1   
    31    15    16 1   
    32    15    48 1   
    33    15    49 1   
    34    16    17 1   
    35    16    20 1   
    36    17    18 2   
    37    17    50 1   
    38    18    19 1   
    39    19    20 ar  
    40    19    24 ar  
    41    20    21 ar  
    42    21    22 ar  
    43    21    51 1   
    44    22    23 ar  
    45    22    52 1   
    46    23    24 ar  
    47    23    25 1   
    48    24    53 1   
    49    25    26 2   
    50    25    27 1   
    51    27    28 1   
    52    27    54 1   
    53    28    29 ar  
    54    28    33 ar  
    55    29    30 ar  
    56    29    55 1   
    57    30    31 ar  
    58    30    56 1   
    59    31    32 ar  
    60    31    57 1   
    61    32    33 ar  
    62    33    58 1   
@<TRIPOS>SUBSTRUCTURE
     1 2HL         1 TEMP              0 ****  ****    0 ROOT
