@<TRIPOS>MOLECULE
2HN
   35    36     1     0     0
SMALL
bcc


@<TRIPOS>ATOM
      1 FAK         0.0860   -0.9380   -0.1230 f         1 2HN     -0.105900
      2 CAT         1.3590   -0.4870   -0.0570 ca        1 2HN      0.132900
      3 CAR         2.0190   -0.5270    1.1980 ca        1 2HN      0.060400
      4 FAI         1.3790   -1.0030    2.2890 f         1 2HN     -0.114400
      5 CAP         3.3520   -0.0670    1.3060 ca        1 2HN      0.086900
      6 FAG         3.9880   -0.0980    2.4970 f         1 2HN     -0.114900
      7 CAQ         4.0150    0.4210    0.1560 ca        1 2HN      0.060400
      8 FAH         5.2920    0.8550    0.2490 f         1 2HN     -0.114400
      9 CAS         3.3410    0.4490   -1.0920 ca        1 2HN      0.132900
     10 FAJ         4.0100    0.9060   -2.1710 f         1 2HN     -0.105900
     11 CAU         2.0070    0.0050   -1.2080 ca        1 2HN     -0.088300
     12 CAL         1.3190    0.0070   -2.5280 c3        1 2HN     -0.047100
     13 CAX         1.0000    1.4010   -3.0500 c3        1 2HN     -0.150700
     14 CAY         0.3110    1.3440   -4.4350 c3        1 2HN      0.030800
     15 OAF         0.3260    2.6670   -4.9580 oh        1 2HN     -0.637800
     16 CAN         1.0780    0.3670   -5.3960 c         1 2HN      0.903600
     17 OAC         1.7710    0.9150   -6.2950 o         1 2HN     -0.813800
     18 OAA         0.9480   -0.8730   -5.2160 o         1 2HN     -0.813800
     19 CAO         0.1350    2.1710   -2.0860 c         1 2HN      0.558100
     20 OAB         0.5350    3.1470   -1.4400 o         1 2HN     -0.551100
     21 CAW        -1.3070    1.7090   -1.9740 c3        1 2HN      0.007100
     22 OAE        -2.0390    2.4670   -1.0320 oh        1 2HN     -0.586800
     23 CAV        -1.9510    1.7550   -3.3720 c3        1 2HN      0.120100
     24 OAD        -3.3050    1.3460   -3.3170 oh        1 2HN     -0.593800
     25 CAM        -1.1450    0.8980   -4.3380 c3        1 2HN     -0.103400
     26 HAL1        0.3770   -0.6020   -2.4780 hc        1 2HN      0.104200
     27 HAL2        1.9860   -0.5030   -3.2850 hc        1 2HN      0.104200
     28 HAX         1.9680    1.9650   -3.1860 hc        1 2HN      0.089700
     29 HAF         0.9790    2.6830   -5.6790 ho        1 2HN      0.437000
     30 HAM1       -1.1650   -0.1790   -4.0270 hc        1 2HN      0.066200
     31 HAM2       -1.6070    0.9700   -5.3560 hc        1 2HN      0.066200
     32 HAW        -1.3320    0.6570   -1.5660 h1        1 2HN      0.089700
     33 HAE        -1.8490    3.3980   -1.2070 ho        1 2HN      0.409000
     34 HAV        -1.9980    2.8200   -3.7370 h1        1 2HN      0.090700
     35 HAD        -3.3130    0.4300   -3.0130 ho        1 2HN      0.392000
@<TRIPOS>BOND
     1    1    2 1   
     2    2    3 ar  
     3    2   11 ar  
     4    3    4 1   
     5    3    5 ar  
     6    5    6 1   
     7    5    7 ar  
     8    7    8 1   
     9    7    9 ar  
    10    9   10 1   
    11    9   11 ar  
    12   11   12 1   
    13   12   13 1   
    14   12   26 1   
    15   12   27 1   
    16   13   14 1   
    17   13   19 1   
    18   13   28 1   
    19   14   15 1   
    20   14   16 1   
    21   14   25 1   
    22   15   29 1   
    23   16   17 1   
    24   16   18 1   
    25   19   20 2   
    26   19   21 1   
    27   21   22 1   
    28   21   23 1   
    29   21   32 1   
    30   22   33 1   
    31   23   24 1   
    32   23   25 1   
    33   23   34 1   
    34   24   35 1   
    35   25   30 1   
    36   25   31 1   
@<TRIPOS>SUBSTRUCTURE
     1 2HN         1 TEMP              0 ****  ****    0 ROOT
