@<TRIPOS>MOLECULE
molecule
   35    36     1     0     0
SMALL
bcc


@<TRIPOS>ATOM
      1 FAK          0.0000     0.0000     0.0000 f          1 2HN      -0.101900
      2 CAT          1.3510     0.0000     0.0000 ca         1 2HN       0.140900
      3 CAR          2.0440     0.0000     1.2000 ca         1 2HN       0.064400
      4 FAI          1.3690     0.0020     2.3700 f          1 2HN      -0.115900
      5 CAP          3.4300    -0.0010     1.1990 ca         1 2HN       0.088900
      6 FAG          4.1070    -0.0010     2.3690 f          1 2HN      -0.115900
      7 CAQ          4.1210    -0.0030    -0.0020 ca         1 2HN       0.064400
      8 FAH          5.4720    -0.0030    -0.0030 f          1 2HN      -0.115900
      9 CAS          3.4270    -0.0030    -1.2010 ca         1 2HN       0.140900
     10 FAJ          4.1010    -0.0060    -2.3720 f          1 2HN      -0.101900
     11 CAU          2.0430    -0.0070    -1.1990 ca         1 2HN      -0.113300
     12 CAL          1.2880    -0.0140    -2.5040 c3         1 2HN      -0.031100
     13 CAX          1.0340     1.4260    -2.9540 c3         1 2HN      -0.130700
     14 CAY          0.4100     1.4250    -4.3530 c3         1 2HN       0.057800
     15 OAF          0.2820     2.7700    -4.8190 oh         1 2HN      -0.609800
     16 CAN          1.2920     0.6490    -5.2960 c          1 2HN       0.861600
     17 OAC          2.3380     1.2490    -5.8840 o          1 2HN      -0.822300
     18 OAA          1.0560    -0.5150    -5.5230 o          1 2HN      -0.822300
     19 CAO          0.0700     2.0930    -1.9980 c          1 2HN       0.565100
     20 OAB          0.4360     2.9880    -1.2740 o          1 2HN      -0.515100
     21 CAW         -1.3640     1.6130    -1.9720 c3         1 2HN       0.047100
     22 OAE         -2.1520     2.4950    -1.1680 oh         1 2HN      -0.587800
     23 CAV         -1.9010     1.6050    -3.4070 c3         1 2HN       0.134100
     24 OAD         -3.2120     1.0360    -3.4220 oh         1 2HN      -0.619800
     25 CAM         -0.9730     0.7730    -4.2930 c3         1 2HN      -0.113400
     26 HAL1         1.8720    -0.5300    -3.2560 hc         1 2HN       0.093700
     27 HAL2         0.3410    -0.5230    -2.3700 hc         1 2HN       0.093700
     28 HAX          1.9660     1.9770    -2.9730 hc         1 2HN       0.106700
     29 HAF          0.1640     2.7690    -5.7540 ho         1 2HN       0.413000
     30 HAM1        -1.3870     0.7170    -5.2920 hc         1 2HN       0.063200
     31 HAM2        -0.8820    -0.2240    -3.8790 hc         1 2HN       0.063200
     32 HAW         -1.4030     0.6090    -1.5650 h1         1 2HN       0.064700
     33 HAE         -2.5650     2.0050    -0.4770 ho         1 2HN       0.397000
     34 HAV         -1.9400     2.6210    -3.7810 h1         1 2HN       0.060700
     35 HAD         -3.7540     1.5120    -4.0290 ho         1 2HN       0.397000
@<TRIPOS>BOND
     1     1     2 1   
     2     2     3 ar  
     3     2    11 ar  
     4     3     4 1   
     5     3     5 ar  
     6     5     6 1   
     7     5     7 ar  
     8     7     8 1   
     9     7     9 ar  
    10     9    10 1   
    11     9    11 ar  
    12    11    12 1   
    13    12    13 1   
    14    13    14 1   
    15    13    19 1   
    16    14    15 1   
    17    14    16 1   
    18    14    25 1   
    19    16    17 1   
    20    16    18 1   
    21    19    20 2   
    22    19    21 1   
    23    21    22 1   
    24    21    23 1   
    25    23    24 1   
    26    23    25 1   
    27    12    26 1   
    28    12    27 1   
    29    13    28 1   
    30    15    29 1   
    31    25    30 1   
    32    25    31 1   
    33    21    32 1   
    34    22    33 1   
    35    23    34 1   
    36    24    35 1   
@<TRIPOS>SUBSTRUCTURE
     1 2HN         1 TEMP              0 ****  ****    0 ROOT
