@<TRIPOS>MOLECULE
2HO
   17    17     1     0     0
SMALL
bcc


@<TRIPOS>ATOM
      1 N1           0.0000     0.0000     0.0000 nz         1 2HO       0.199600
      2 C4           2.0850    -0.0010    -1.2790 ca         1 2HO      -0.235600
      3 C5           3.4810    -0.0020    -1.2830 ca         1 2HO       0.036000
      4 C6           4.1660    -0.0040    -2.4800 ca         1 2HO      -0.105000
      5 C7           3.4720    -0.0040    -3.6780 ca         1 2HO       0.178900
      6 C9           2.0840    -0.0040    -3.6830 ca         1 2HO       0.110900
      7 F8           4.1500    -0.0050    -4.8480 f          1 2HO      -0.082900
      8 C11          1.3890    -0.0080    -2.4900 ca         1 2HO      -0.100000
      9 C2           1.3470     0.0000     0.0000 c          1 2HO       0.360700
     10 O3           1.9550     0.0000     1.0520 o          1 2HO      -0.419100
     11 H1          -0.3340    -0.8190    -0.4690 hn         1 2HO       0.249467
     12 H2          -0.3340     0.0030     0.9440 hn         1 2HO       0.249467
     13 H3           4.0260     0.0000    -0.3470 ha         1 2HO       0.142000
     14 H4           5.2500    -0.0040    -2.4820 ha         1 2HO       0.154000
     15 H5           0.3050    -0.0070    -2.4940 ha         1 2HO       0.103000
     16 F10          1.4130    -0.0090    -4.8550 f          1 2HO      -0.087900
     17 H13         -0.3340     0.8160    -0.4740 hn         1 2HO       0.249467
@<TRIPOS>BOND
     1     1     9 1   
     2     1    11 1   
     3     1    12 1   
     4     1    17 1   
     5     2     3 ar  
     6     2     8 ar  
     7     2     9 1   
     8     3     4 ar  
     9     3    13 1   
    10     4     5 ar  
    11     4    14 1   
    12     5     6 ar  
    13     5     7 1   
    14     6     8 ar  
    15     6    16 1   
    16     8    15 1   
    17     9    10 2   
@<TRIPOS>SUBSTRUCTURE
     1 2HO         1 TEMP              0 ****  ****    0 ROOT
