@<TRIPOS>MOLECULE
molecule
    5     4     1     0     0
SMALL
bcc


@<TRIPOS>ATOM
      1 P           11.3700    39.4440    13.1370 p5         1 2HP       1.343000
      2 O1          10.2830    39.9730    14.0280 o          1 2HP      -1.085750
      3 O2          10.9730    38.1120    12.5450 o          1 2HP      -1.085750
      4 O3          11.7570    40.4330    12.0970 o          1 2HP      -1.085750
      5 O4          12.6030    39.2000    14.0210 o          1 2HP      -1.085750
@<TRIPOS>BOND
     1     1     2 1
     2     1     3 1
     3     1     4 1
     4     1     5 1
@<TRIPOS>SUBSTRUCTURE
     1 2HP         1 TEMP              0 ****  ****    0 ROOT
