@<TRIPOS>MOLECULE
2HP
    5     4     1     0     0
SMALL
bcc


@<TRIPOS>ATOM
      1 P          11.3970   39.4320   13.1660 p5        1 2HP      1.243000
      2 O1         10.2390   39.9920   14.0410 o         1 2HP     -1.060500
      3 O2         10.9540   38.0910   12.5150 o         1 2HP     -1.060500
      4 O3         11.7470   40.4590   12.0500 o         1 2HP     -1.060500
      5 O4         12.6490   39.1880   14.0560 o         1 2HP     -1.060500
@<TRIPOS>BOND
     1    1    2 1   
     2    1    3 1   
     3    1    4 1   
     4    1    5 1   
@<TRIPOS>SUBSTRUCTURE
     1 2HP         1 TEMP              0 ****  ****    0 ROOT
