@<TRIPOS>MOLECULE
molecule
   16    17     1     0     0
SMALL
bcc


@<TRIPOS>ATOM
      1 OAL          0.0000     0.0000     0.0000 o          1 2HQ      -0.434100
      2 CAI          1.2130     0.0000     0.0000 c          1 2HQ       0.511700
      3 CAE          2.1120     0.0000     1.1690 ca         1 2HQ      -0.244600
      4 CAF          1.8840    -0.0020     2.5450 ca         1 2HQ      -0.014000
      5 CAA          2.9560    -0.0030     3.4160 ca         1 2HQ      -0.018600
      6 ClA          2.6810    -0.0060     5.1300 cl         1 2HQ      -0.092400
      7 CAB          4.2510    -0.0010     2.9230 ca         1 2HQ      -0.055000
      8 CAC          4.4860     0.0010     1.5610 ca         1 2HQ      -0.166000
      9 CAD          3.4230     0.0010     0.6670 ca         1 2HQ       0.093600
     10 NAH          3.3910     0.0030    -0.7260 ns         1 2HQ      -0.462100
     11 CAJ          2.1290    -0.0040    -1.1880 c          1 2HQ       0.615500
     12 OAK          1.7920    -0.0050    -2.3530 o          1 2HQ      -0.545500
     13 H1           0.8750     0.0950     2.9270 ha         1 2HQ       0.163000
     14 H2           5.0870    -0.0020     3.6120 ha         1 2HQ       0.154000
     15 H3           5.5040     0.0020     1.1890 ha         1 2HQ       0.145000
     16 H4           4.2050     0.0030    -1.3090 hn         1 2HQ       0.348500
@<TRIPOS>BOND
     1     8     7 ar
     2     8     9 ar
     3     7     5 ar
     4     9    10 1
     5     9     3 ar
     6     5     6 1
     7     5     4 ar
     8    10    11 1
     9     3     4 ar
    10     3     2 1
    11    11    12 2
    12    11     2 1
    13     2     1 2
    14     4    13 1
    15     7    14 1
    16     8    15 1
    17    10    16 1
@<TRIPOS>SUBSTRUCTURE
     1 2HQ         1 TEMP              0 ****  ****    0 ROOT
