@<TRIPOS>MOLECULE
2HR
   46    46     1     0     0
SMALL
bcc


@<TRIPOS>ATOM
      1 C6         -0.2560   -1.3830    1.3010 c3        1 2HR     -0.090100
      2 C5          1.1500   -1.1810    0.7980 c3        1 2HR     -0.080400
      3 C4          2.0730   -0.6970    1.8960 c3        1 2HR     -0.080400
      4 C3          3.4840   -0.4920    1.3860 c3        1 2HR     -0.069400
      5 C2          4.4050   -0.0160    2.4860 c3        1 2HR     -0.069400
      6 C1          5.8120    0.2040    2.0180 c3        1 2HR     -0.329600
      7 P           6.7320    0.6630    3.3620 p5        1 2HR      1.343600
      8 O           8.1290    0.9460    2.9620 o         1 2HR     -0.862000
      9 O1          6.0440    2.1640    3.6590 os        1 2HR     -0.597200
     10 C7          6.8030    3.0420    4.4220 c3        1 2HR      0.199400
     11 C8          6.1370    3.4060    5.7590 c3        1 2HR     -0.078700
     12 C9          6.4000    2.3460    6.8080 c3        1 2HR     -0.099100
     13 C10         4.6360    3.6220    5.6110 c3        1 2HR     -0.033100
     14 C11         4.2950    4.8900    4.9090 ca        1 2HR     -0.053300
     15 C16         3.8690    6.0160    5.6230 ca        1 2HR     -0.129500
     16 C15         3.5300    7.1910    4.9520 ca        1 2HR     -0.142000
     17 C14         3.6130    7.2520    3.5630 ca        1 2HR     -0.153000
     18 C13         4.0390    6.1340    2.8440 ca        1 2HR     -0.142000
     19 C12         4.3780    4.9590    3.5100 ca        1 2HR     -0.129500
     20 O2          6.4070   -0.1600    4.5500 o         1 2HR     -0.862000
     21 H61        -0.6720   -0.4260    1.7000 hc        1 2HR      0.025700
     22 H62        -0.2740   -2.1400    2.1230 hc        1 2HR      0.025700
     23 H63        -0.9190   -1.7400    0.4770 hc        1 2HR      0.025700
     24 H51         1.1460   -0.4360   -0.0420 hc        1 2HR      0.032700
     25 H52         1.5420   -2.1450    0.3790 hc        1 2HR      0.032700
     26 H41         1.6830    0.2680    2.3160 hc        1 2HR      0.039200
     27 H42         2.0820   -1.4410    2.7350 hc        1 2HR      0.039200
     28 H31         3.4770    0.2560    0.5500 hc        1 2HR      0.027200
     29 H32         3.8730   -1.4560    0.9620 hc        1 2HR      0.027200
     30 H21         4.4280   -0.7600    3.3290 hc        1 2HR      0.060200
     31 H22         4.0260    0.9500    2.9170 hc        1 2HR      0.060200
     32 H11         6.2260   -0.7270    1.5630 hc        1 2HR      0.062200
     33 H12A        5.8460    0.9880    1.2250 hc        1 2HR      0.062200
     34 H71         6.9210    4.0000    3.8320 h1        1 2HR      0.023200
     35 H72         7.8260    2.6100    4.6120 h1        1 2HR      0.023200
     36 H8          6.6070    4.3700    6.1050 hc        1 2HR      0.020700
     37 H91         5.9760    2.6580    7.7940 hc        1 2HR      0.039367
     38 H92         5.9410    1.3700    6.5100 hc        1 2HR      0.039367
     39 H93         7.4990    2.1910    6.9290 hc        1 2HR      0.039367
     40 H101        4.2150    2.7520    5.0330 hc        1 2HR      0.054700
     41 H102        4.1620    3.6210    6.6290 hc        1 2HR      0.054700
     42 H16         3.8020    5.9730    6.7200 ha        1 2HR      0.149000
     43 H15         3.1970    8.0690    5.5220 ha        1 2HR      0.116500
     44 H14         3.3470    8.1780    3.0350 ha        1 2HR      0.112000
     45 H13         4.1110    6.1800    1.7480 ha        1 2HR      0.116500
     46 H12         4.7280    4.0670    2.9580 ha        1 2HR      0.149000
@<TRIPOS>BOND
     1    1    2 1   
     2    1   21 1   
     3    1   22 1   
     4    1   23 1   
     5    2    3 1   
     6    2   24 1   
     7    2   25 1   
     8    3    4 1   
     9    3   26 1   
    10    3   27 1   
    11    4    5 1   
    12    4   28 1   
    13    4   29 1   
    14    5    6 1   
    15    5   30 1   
    16    5   31 1   
    17    6    7 1   
    18    6   32 1   
    19    6   33 1   
    20    7    8 1   
    21    7    9 1   
    22    7   20 1   
    23    9   10 1   
    24   10   11 1   
    25   10   34 1   
    26   10   35 1   
    27   11   12 1   
    28   11   13 1   
    29   11   36 1   
    30   12   37 1   
    31   12   38 1   
    32   12   39 1   
    33   13   14 1   
    34   13   40 1   
    35   13   41 1   
    36   14   15 ar  
    37   14   19 ar  
    38   15   16 ar  
    39   15   42 1   
    40   16   17 ar  
    41   16   43 1   
    42   17   18 ar  
    43   17   44 1   
    44   18   19 ar  
    45   18   45 1   
    46   19   46 1   
@<TRIPOS>SUBSTRUCTURE
     1 2HR         1 TEMP              0 ****  ****    0 ROOT
