@<TRIPOS>MOLECULE
molecule
   46    46     1     0     0
SMALL
bcc


@<TRIPOS>ATOM
      1 C6           0.0000     0.0000     0.0000 c3         1 2HR      -0.090100
      2 C5           1.5200     0.0000     0.0000 c3         1 2HR      -0.084400
      3 C4           2.0800     0.0000     1.4220 c3         1 2HR      -0.081400
      4 C3           3.6100    -0.0350     1.4190 c3         1 2HR      -0.077400
      5 C2           4.1660    -0.0680     2.8430 c3         1 2HR      -0.051400
      6 C1           5.6880    -0.1260     2.8640 c3         1 2HR      -0.285600
      7 P            6.3920    -0.0970     4.5280 p5         1 2HR       1.187600
      8 O            7.9780    -0.0460     4.2450 o          1 2HR      -0.813500
      9 O1           6.0270     1.3620     5.1020 os         1 2HR      -0.587200
     10 C7           6.4760     2.5430     4.4630 c3         1 2HR       0.210400
     11 C8           6.6740     3.6770     5.4810 c3         1 2HR      -0.065700
     12 C9           7.7130     3.2720     6.5330 c3         1 2HR      -0.082100
     13 C10          5.3650     4.0840     6.1920 c3         1 2HR      -0.033100
     14 C11          4.2870     4.5670     5.2530 ca         1 2HR      -0.066300
     15 C16          4.2120     5.9150     4.9410 ca         1 2HR      -0.122000
     16 C15          3.2150     6.3620     4.0730 ca         1 2HR      -0.137000
     17 C14          2.3060     5.4550     3.5290 ca         1 2HR      -0.147000
     18 C13          2.3930     4.1010     3.8530 ca         1 2HR      -0.137000
     19 C12          3.3890     3.6540     4.7200 ca         1 2HR      -0.122000
     20 O2           5.9390    -1.2420     5.3680 o          1 2HR      -0.813500
     21 H61         -0.3610    -0.8640     0.5450 hc         1 2HR       0.026700
     22 H62         -0.3610     0.9040     0.4760 hc         1 2HR       0.026700
     23 H63         -0.3610    -0.0400    -1.0210 hc         1 2HR       0.026700
     24 H51          1.8740    -0.8820    -0.5190 hc         1 2HR       0.035200
     25 H52          1.8740     0.8820    -0.5190 hc         1 2HR       0.035200
     26 H41          1.7060    -0.8690     1.9500 hc         1 2HR       0.035200
     27 H42          1.7470     0.8950     1.9340 hc         1 2HR       0.035200
     28 H31          3.9430    -0.9180     0.8870 hc         1 2HR       0.032700
     29 H32          3.9840     0.8470     0.9120 hc         1 2HR       0.032700
     30 H21          3.8410     0.8220     3.3680 hc         1 2HR       0.034200
     31 H22          3.7750    -0.9400     3.3530 hc         1 2HR       0.034200
     32 H11          6.0060    -1.0370     2.3710 hc         1 2HR       0.055200
     33 H12A         6.0740     0.7210     2.3100 hc         1 2HR       0.055200
     34 H71          5.7440     2.8500     3.7260 h1         1 2HR       0.030200
     35 H72          7.4180     2.3430     3.9670 h1         1 2HR       0.030200
     36 H8           7.0510     4.5430     4.9500 hc         1 2HR       0.029700
     37 H91          7.9380     4.1230     7.1650 hc         1 2HR       0.036367
     38 H92          7.3180     2.4660     7.1390 hc         1 2HR       0.036367
     39 H93          8.6180     2.9420     6.0370 hc         1 2HR       0.036367
     40 H101         4.9880     3.2280     6.7380 hc         1 2HR       0.047700
     41 H102         5.5870     4.8750     6.8980 hc         1 2HR       0.047700
     42 H16          4.9210     6.6150     5.3660 ha         1 2HR       0.141500
     43 H15          3.1470     7.4140     3.8220 ha         1 2HR       0.120000
     44 H14          1.5320     5.8010     2.8550 ha         1 2HR       0.116000
     45 H13          1.6870     3.3960     3.4310 ha         1 2HR       0.120000
     46 H12          3.4610     2.6040     4.9750 ha         1 2HR       0.141500
@<TRIPOS>BOND
     1     1     2 1
     2     1    21 1
     3     1    22 1
     4     1    23 1
     5     2     3 1
     6     2    24 1
     7     2    25 1
     8     3     4 1
     9     3    26 1
    10     3    27 1
    11     4     5 1
    12     4    28 1
    13     4    29 1
    14     5     6 1
    15     5    30 1
    16     5    31 1
    17     6     7 1
    18     6    32 1
    19     6    33 1
    20     7     8 1
    21     7     9 1
    22     7    20 1
    23     9    10 1
    24    10    11 1
    25    10    34 1
    26    10    35 1
    27    11    12 1
    28    11    13 1
    29    11    36 1
    30    12    37 1
    31    12    38 1
    32    12    39 1
    33    13    14 1
    34    13    40 1
    35    13    41 1
    36    14    15 ar
    37    14    19 ar
    38    15    16 ar
    39    15    42 1
    40    16    17 ar
    41    16    43 1
    42    17    18 ar
    43    17    44 1
    44    18    19 ar
    45    18    45 1
    46    19    46 1
@<TRIPOS>SUBSTRUCTURE
     1 2HR         1 TEMP              0 ****  ****    0 ROOT
