@<TRIPOS>MOLECULE
molecule
   46    46     1     0     0
SMALL
bcc


@<TRIPOS>ATOM
      1 C6           0.0000     0.0000     0.0000 c3         1 2HS      -0.090100
      2 C5           1.5210     0.0000     0.0000 c3         1 2HS      -0.083400
      3 C4           2.0800     0.0000     1.4220 c3         1 2HS      -0.081400
      4 C3           3.6100    -0.0350     1.4190 c3         1 2HS      -0.077400
      5 C2           4.1670    -0.0670     2.8430 c3         1 2HS      -0.051400
      6 C1           5.6890    -0.1250     2.8640 c3         1 2HS      -0.284600
      7 P            6.3920    -0.0940     4.5280 p5         1 2HS       1.187600
      8 O            7.9780    -0.0450     4.2450 o          1 2HS      -0.814000
      9 O1           6.0290     1.3670     5.1010 os         1 2HS      -0.589200
     10 C7           6.4780     2.5460     4.4590 c3         1 2HS       0.214400
     11 C8           5.9930     3.7970     5.2080 c3         1 2HS      -0.066700
     12 C9           4.4600     3.8290     5.2530 c3         1 2HS      -0.084100
     13 C10          6.5450     3.8880     6.6470 c3         1 2HS      -0.027100
     14 C11          8.0520     3.9330     6.7200 ca         1 2HS      -0.081300
     15 C16          8.7620     2.7470     6.8160 ca         1 2HS      -0.114000
     16 C15         10.1550     2.7880     6.8840 ca         1 2HS      -0.133500
     17 C14         10.8200     4.0150     6.8530 ca         1 2HS      -0.148000
     18 C13         10.0900     5.1990     6.7560 ca         1 2HS      -0.133500
     19 C12          8.6980     5.1580     6.6880 ca         1 2HS      -0.114000
     20 O2           5.9390    -1.2390     5.3690 o          1 2HS      -0.814000
     21 H61         -0.3610     0.8810     0.5170 hc         1 2HS       0.026700
     22 H62         -0.3610     0.0070    -1.0210 hc         1 2HS       0.026700
     23 H63         -0.3610    -0.8880     0.5040 hc         1 2HS       0.026700
     24 H51          1.8740     0.8820    -0.5190 hc         1 2HS       0.034700
     25 H52          1.8740    -0.8820    -0.5190 hc         1 2HS       0.034700
     26 H41          1.7070    -0.8700     1.9500 hc         1 2HS       0.036200
     27 H42          1.7470     0.8950     1.9340 hc         1 2HS       0.036200
     28 H31          3.9430    -0.9180     0.8880 hc         1 2HS       0.032200
     29 H32          3.9840     0.8460     0.9120 hc         1 2HS       0.032200
     30 H21          3.8420     0.8240     3.3670 hc         1 2HS       0.035200
     31 H22          3.7750    -0.9380     3.3540 hc         1 2HS       0.035200
     32 H11          6.0750     0.7220     2.3100 hc         1 2HS       0.055700
     33 H12A         6.0070    -1.0360     2.3710 hc         1 2HS       0.055700
     34 H71          6.0960     2.5680     3.4460 h1         1 2HS       0.029700
     35 H72          7.5610     2.5460     4.4320 h1         1 2HS       0.029700
     36 H8           6.3320     4.6690     4.6610 hc         1 2HS       0.031700
     37 H91          4.0700     3.8670     4.2430 hc         1 2HS       0.030033
     38 H92          4.1330     4.7040     5.8010 hc         1 2HS       0.030033
     39 H93          4.0950     2.9360     5.7470 hc         1 2HS       0.030033
     40 H101         6.1990     3.0260     7.2050 hc         1 2HS       0.045200
     41 H102         6.1500     4.7830     7.1130 hc         1 2HS       0.045200
     42 H16          8.2410     1.7970     6.8400 ha         1 2HS       0.144500
     43 H15         10.7220     1.8680     6.9600 ha         1 2HS       0.123000
     44 H14         11.9010     4.0470     6.9060 ha         1 2HS       0.114000
     45 H13         10.6050     6.1520     6.7330 ha         1 2HS       0.123000
     46 H12          8.1270     6.0760     6.6130 ha         1 2HS       0.144500
@<TRIPOS>BOND
     1     1     2 1
     2     1    21 1
     3     1    22 1
     4     1    23 1
     5     2     3 1
     6     2    24 1
     7     2    25 1
     8     3     4 1
     9     3    26 1
    10     3    27 1
    11     4     5 1
    12     4    28 1
    13     4    29 1
    14     5     6 1
    15     5    30 1
    16     5    31 1
    17     6     7 1
    18     6    32 1
    19     6    33 1
    20     7     8 1
    21     7     9 1
    22     7    20 1
    23     9    10 1
    24    10    11 1
    25    10    34 1
    26    10    35 1
    27    11    12 1
    28    11    13 1
    29    11    36 1
    30    12    37 1
    31    12    38 1
    32    12    39 1
    33    13    14 1
    34    13    40 1
    35    13    41 1
    36    14    15 ar
    37    14    19 ar
    38    15    16 ar
    39    15    42 1
    40    16    17 ar
    41    16    43 1
    42    17    18 ar
    43    17    44 1
    44    18    19 ar
    45    18    45 1
    46    19    46 1
@<TRIPOS>SUBSTRUCTURE
     1 2HS         1 TEMP              0 ****  ****    0 ROOT
