@<TRIPOS>MOLECULE
2HS
   46    46     1     0     0
SMALL
bcc


@<TRIPOS>ATOM
      1 C6          0.4530   -0.4970   -0.6820 c3        1 2HS     -0.090100
      2 C5          1.9250   -0.4930   -0.3590 c3        1 2HS     -0.080400
      3 C4          2.1750   -0.2070    1.1070 c3        1 2HS     -0.079400
      4 C3          3.6540   -0.2030    1.4280 c3        1 2HS     -0.069400
      5 C2          3.9000    0.0760    2.8930 c3        1 2HS     -0.069400
      6 C1          5.3550    0.0930    3.2510 c3        1 2HS     -0.342600
      7 P           5.4660    0.3510    4.9250 p5        1 2HS      1.353600
      8 O           6.9000    0.3880    5.3100 o         1 2HS     -0.860000
      9 O1          4.9550    1.9380    5.0400 os        1 2HS     -0.584200
     10 C7          5.8700    2.9320    4.7180 c3        1 2HS      0.191400
     11 C8          5.9600    4.0120    5.8050 c3        1 2HS     -0.070700
     12 C9          4.5810    4.3600    6.3200 c3        1 2HS     -0.076100
     13 C10         6.8650    3.5910    6.9580 c3        1 2HS     -0.036100
     14 C11         8.3120    3.7250    6.6290 ca        1 2HS     -0.069300
     15 C16         9.0290    2.6240    6.1380 ca        1 2HS     -0.128500
     16 C15        10.3870    2.7540    5.8500 ca        1 2HS     -0.147500
     17 C14        11.0400    3.9710    6.0470 ca        1 2HS     -0.153000
     18 C13        10.3290    5.0680    6.5320 ca        1 2HS     -0.147500
     19 C12         8.9710    4.9450    6.8210 ca        1 2HS     -0.128500
     20 O2          4.4610   -0.4490    5.6560 o         1 2HS     -0.860000
     21 H61        -0.0780   -1.2780   -0.0860 hc        1 2HS      0.025367
     22 H62        -0.0050    0.4930   -0.4450 hc        1 2HS      0.025367
     23 H63         0.2910   -0.7110   -1.7660 hc        1 2HS      0.025367
     24 H51         2.4450    0.2800   -0.9840 hc        1 2HS      0.032700
     25 H52         2.3720   -1.4870   -0.6260 hc        1 2HS      0.032700
     26 H41         1.7300    0.7870    1.3770 hc        1 2HS      0.039200
     27 H42         1.6570   -0.9800    1.7340 hc        1 2HS      0.039200
     28 H31         4.1720    0.5720    0.8040 hc        1 2HS      0.026700
     29 H32         4.1000   -1.1960    1.1560 hc        1 2HS      0.026700
     30 H21         3.3910   -0.6970    3.5320 hc        1 2HS      0.060700
     31 H22         3.4600    1.0700    3.1770 hc        1 2HS      0.060700
     32 H11         5.8400   -0.8740    2.9760 hc        1 2HS      0.059700
     33 H12A        5.8930    0.8900    2.6860 hc        1 2HS      0.059700
     34 H71         5.5230    3.4420    3.7690 h1        1 2HS      0.017700
     35 H72         6.8930    2.4880    4.5480 h1        1 2HS      0.017700
     36 H8          6.4090    4.9280    5.3250 hc        1 2HS      0.022700
     37 H91         4.1130    3.4590    6.7860 hc        1 2HS      0.028700
     38 H92         4.6320    5.1810    7.0750 hc        1 2HS      0.028700
     39 H93         3.9310    4.6890    5.4730 hc        1 2HS      0.028700
     40 H101        6.6370    2.5270    7.2340 hc        1 2HS      0.055200
     41 H102        6.6350    4.2290    7.8540 hc        1 2HS      0.055200
     42 H16         8.5040    1.6570    5.9700 ha        1 2HS      0.170500
     43 H15        10.9430    1.8880    5.4630 ha        1 2HS      0.115500
     44 H14        12.1100    4.0670    5.8190 ha        1 2HS      0.108000
     45 H13        10.8370    6.0290    6.6870 ha        1 2HS      0.115500
     46 H12         8.4110    5.8110    7.2020 ha        1 2HS      0.170500
@<TRIPOS>BOND
     1    1    2 1   
     2    1   21 1   
     3    1   22 1   
     4    1   23 1   
     5    2    3 1   
     6    2   24 1   
     7    2   25 1   
     8    3    4 1   
     9    3   26 1   
    10    3   27 1   
    11    4    5 1   
    12    4   28 1   
    13    4   29 1   
    14    5    6 1   
    15    5   30 1   
    16    5   31 1   
    17    6    7 1   
    18    6   32 1   
    19    6   33 1   
    20    7    8 1   
    21    7    9 1   
    22    7   20 1   
    23    9   10 1   
    24   10   11 1   
    25   10   34 1   
    26   10   35 1   
    27   11   12 1   
    28   11   13 1   
    29   11   36 1   
    30   12   37 1   
    31   12   38 1   
    32   12   39 1   
    33   13   14 1   
    34   13   40 1   
    35   13   41 1   
    36   14   15 ar  
    37   14   19 ar  
    38   15   16 ar  
    39   15   42 1   
    40   16   17 ar  
    41   16   43 1   
    42   17   18 ar  
    43   17   44 1   
    44   18   19 ar  
    45   18   45 1   
    46   19   46 1   
@<TRIPOS>SUBSTRUCTURE
     1 2HS         1 TEMP              0 ****  ****    0 ROOT
