@<TRIPOS>MOLECULE
molecule
   16    16     1     0     0
SMALL
bcc


@<TRIPOS>ATOM
      1 C24          0.0000     0.0000     0.0000 ca         1 2HT      -0.085300
      2 C26          2.0820     0.0000     1.1950 ca         1 2HT      -0.129000
      3 C28          0.0040    -0.0050     2.4020 ca         1 2HT      -0.018000
      4 N30         -1.2580     0.0040     4.6380 n1         1 2HT      -0.364800
      5 C29         -0.7080    -0.0050     3.6440 cg         1 2HT       0.240800
      6 C27          1.4020     0.0010     2.3950 ca         1 2HT      -0.096000
      7 C25          1.3830     0.0000     0.0000 ca         1 2HT      -0.107000
      8 C31         -0.6930     0.0010     1.1930 ca         1 2HT      -0.090000
      9 C23         -0.7520     0.0060    -1.3060 c3         1 2HT      -0.048800
     10 H26          3.1650     0.0050     1.1860 ha         1 2HT       0.138000
     11 H27          1.9510     0.0010     3.3290 ha         1 2HT       0.141000
     12 H25          1.9250    -0.0010    -0.9380 ha         1 2HT       0.135000
     13 H31         -1.7760     0.0010     1.1900 ha         1 2HT       0.142000
     14 H23         -1.7580    -0.3610    -1.1460 hc         1 2HT       0.046700
     15 H23A        -0.7940     1.0170    -1.6940 hc         1 2HT       0.046700
     16 H23B        -0.2440    -0.6330    -2.0180 hc         1 2HT       0.046700
@<TRIPOS>BOND
     1     7     1 ar
     2     1     8 ar
     3     1     9 1
     4     2     6 ar
     5     2     7 ar
     6     2    10 1
     7     6     3 ar
     8     5     3 1
     9     3     8 ar
    10     4     5 3
    11     6    11 1
    12     7    12 1
    13     8    13 1
    14     9    14 1
    15     9    15 1
    16     9    16 1
@<TRIPOS>SUBSTRUCTURE
     1 2HT         1 TEMP              0 ****  ****    0 ROOT
