@<TRIPOS>MOLECULE
2HU
   18    19     1     0     0
SMALL
bcc


@<TRIPOS>ATOM
      1 O1           0.0000     0.0000     0.0000 o          1 2HU      -0.457500
      2 N2           1.2190     0.0000     0.0000 no         1 2HU       1.054200
      3 O3           1.8280     0.0000     1.0550 o          1 2HU      -0.457500
      4 C4           1.9580    -0.0070    -1.2820 ca         1 2HU      -0.482200
      5 C5           1.2590    -0.0130    -2.4800 ca         1 2HU      -0.015000
      6 C6           1.9290    -0.0180    -3.6850 ca         1 2HU      -0.115000
      7 C7           3.3190    -0.0190    -3.7020 ca         1 2HU      -0.189200
      8 N8           4.2550    -0.0240    -4.7120 na         1 2HU       0.365600
      9 C9           5.5160    -0.0220    -4.1790 cc         1 2HU      -0.268100
     10 C10          5.4450    -0.0140    -2.8380 cd         1 2HU      -0.134200
     11 C11          4.0240    -0.0130    -2.4840 ca         1 2HU      -0.136800
     12 C12          3.3260    -0.0010    -1.2750 ca         1 2HU       0.067000
     13 H5           0.1760    -0.0130    -2.4690 ha         1 2HU       0.131000
     14 H6           1.3740    -0.0230    -4.6150 ha         1 2HU       0.110000
     15 HN8          4.0450    -0.0300    -5.6900 hn         1 2HU       0.118700
     16 H9           6.4340    -0.0250    -4.7530 h4         1 2HU       0.145000
     17 H10          6.2810    -0.0110    -2.1480 ha         1 2HU       0.135000
     18 H12          3.8620     0.1090    -0.3410 ha         1 2HU       0.129000
@<TRIPOS>BOND
     1     1     2 1   
     2     2     3 1   
     3     2     4 1   
     4     4     5 ar  
     5     4    12 ar  
     6     5     6 ar  
     7     5    13 1   
     8     6     7 ar  
     9     6    14 1   
    10     7     8 1   
    11     7    11 ar  
    12     8     9 1   
    13     8    15 1   
    14     9    10 2   
    15     9    16 1   
    16    10    11 1   
    17    10    17 1   
    18    11    12 ar  
    19    12    18 1   
@<TRIPOS>SUBSTRUCTURE
     1 2HU         1 TEMP              0 ****  ****    0 ROOT
