@<TRIPOS>MOLECULE
molecule
   18    19     1     0     0
SMALL
bcc


@<TRIPOS>ATOM
      1 O1           0.0000     0.0000     0.0000 o          1 2HU      -0.212500
      2 N2           1.2190     0.0000     0.0000 no         1 2HU       0.298200
      3 O3           1.8280     0.0000     1.0550 o          1 2HU      -0.212500
      4 C4           1.9580    -0.0070    -1.2820 ca         1 2HU      -0.184200
      5 C5           1.2590    -0.0130    -2.4800 ca         1 2HU      -0.063000
      6 C6           1.9290    -0.0180    -3.6850 ca         1 2HU      -0.146000
      7 C7           3.3190    -0.0190    -3.7020 ca         1 2HU      -0.011200
      8 N8           4.2550    -0.0240    -4.7120 na         1 2HU      -0.176400
      9 C9           5.5160    -0.0220    -4.1790 cc         1 2HU      -0.097100
     10 C10          5.4450    -0.0140    -2.8380 cd         1 2HU      -0.181200
     11 C11          4.0240    -0.0130    -2.4840 ca         1 2HU      -0.118800
     12 C12          3.3260    -0.0010    -1.2750 ca         1 2HU      -0.010000
     13 H5           0.1760    -0.0130    -2.4690 ha         1 2HU       0.166000
     14 H6           1.3740    -0.0230    -4.6150 ha         1 2HU       0.142000
     15 HN8          4.0450    -0.0300    -5.6900 hn         1 2HU       0.303700
     16 H9           6.4340    -0.0250    -4.7530 h4         1 2HU       0.174000
     17 H10          6.2810    -0.0110    -2.1480 ha         1 2HU       0.164000
     18 H12          3.8620     0.1090    -0.3410 ha         1 2HU       0.166000
@<TRIPOS>BOND
     1     1     2 1
     2     2     3 1
     3     2     4 1
     4     4     5 ar
     5     4    12 ar
     6     5     6 ar
     7     6     7 ar
     8     7     8 1
     9     7    11 ar
    10     8     9 1
    11     9    10 2
    12    10    11 1
    13    11    12 ar
    14     5    13 1
    15     6    14 1
    16     8    15 1
    17     9    16 1
    18    10    17 1
    19    12    18 1
@<TRIPOS>SUBSTRUCTURE
     1 2HU         1 TEMP              0 ****  ****    0 ROOT
