@<TRIPOS>MOLECULE
2HV
   44    46     1     0     0
SMALL
bcc


@<TRIPOS>ATOM
      1 O1           0.0000     0.0000     0.0000 o          1 2HV      -0.646100
      2 C5           1.2160     0.0000     0.0000 c          1 2HV       0.493600
      3 C3           1.9530     0.0000     1.2740 cc         1 2HV       0.268800
      4 N1           3.2880     0.0070     1.3330 nc         1 2HV      -0.615000
      5 C4           1.3300    -0.0010     2.4710 cd         1 2HV      -0.092400
      6 S            2.5030    -0.0010     3.7150 ss         1 2HV      -0.196300
      7 C2           3.7970     0.0060     2.5230 cd         1 2HV       0.411300
      8 N            5.1560     0.0120     2.8130 ns         1 2HV      -0.062400
      9 C1           5.5700     0.0090     4.0970 c          1 2HV       0.543100
     10 O            4.7570     0.0020     4.9970 o          1 2HV      -0.600100
     11 C            7.0440     0.0160     4.4120 c3         1 2HV      -0.061100
     12 N2           1.8900    -0.0040    -1.1670 ns         1 2HV       0.004900
     13 C6           1.1940    -0.1270    -2.3770 ca         1 2HV      -0.062400
     14 C11          1.7530     0.3630    -3.5580 ca         1 2HV      -0.036400
     15 C10          1.0600     0.2380    -4.7520 ca         1 2HV      -0.115000
     16 C9          -0.1830    -0.3690    -4.7700 ca         1 2HV      -0.116000
     17 C8          -0.7370    -0.8530    -3.5990 ca         1 2HV      -0.077000
     18 C7          -0.0490    -0.7390    -2.4050 ca         1 2HV      -0.122000
     19 N3           3.0100     0.9780    -3.5380 nh         1 2HV      -0.404000
     20 C16          3.9600     0.2600    -4.3970 c3         1 2HV       0.148300
     21 C15          5.3550     0.8700    -4.2390 c3         1 2HV      -0.025900
     22 C14          5.3050     2.3510    -4.6250 c3         1 2HV      -0.027400
     23 C13          4.2740     3.0650    -3.7480 c3         1 2HV      -0.025900
     24 C12          2.9100     2.3920    -3.9200 c3         1 2HV       0.148300
     25 H4           0.2570    -0.0050     2.6200 h4         1 2HV       0.179000
     26 H3           5.8270    -0.0120     2.0710 hn         1 2HV       0.178500
     27 H1           7.1830     0.0260     5.4870 hc         1 2HV       0.028367
     28 H2           7.5020     0.8970     3.9810 hc         1 2HV       0.028367
     29 H            7.5060    -0.8720     3.9970 hc         1 2HV       0.028367
     30 H5           2.8740     0.1760    -1.1750 hn         1 2HV       0.196500
     31 H9           1.4900     0.6170    -5.6720 ha         1 2HV       0.109000
     32 H8          -0.7250    -0.4640    -5.7030 ha         1 2HV       0.102000
     33 H7          -1.7090    -1.3300    -3.6190 ha         1 2HV       0.103000
     34 H6          -0.4860    -1.1190    -1.4900 ha         1 2HV       0.157000
     35 H18          3.9890    -0.7830    -4.1080 h1         1 2HV       0.014450
     36 H19          3.6460     0.3450    -5.4310 h1         1 2HV       0.014450
     37 H16          5.6740     0.7760    -3.2080 hc         1 2HV       0.018200
     38 H17          6.0500     0.3520    -4.8880 hc         1 2HV       0.018200
     39 H14          6.2800     2.7970    -4.4700 hc         1 2HV       0.013200
     40 H15          5.0200     2.4440    -5.6660 hc         1 2HV       0.013200
     41 H12          4.5780     3.0020    -2.7100 hc         1 2HV       0.018200
     42 H13          4.2030     4.1040    -4.0470 hc         1 2HV       0.018200
     43 H11          2.6020     2.4640    -4.9560 h1         1 2HV       0.014450
     44 H10          2.1830     2.8850    -3.2860 h1         1 2HV       0.014450
@<TRIPOS>BOND
     1     1     2 2   
     2     2     3 1   
     3     2    12 1   
     4     3     4 1   
     5     3     5 2   
     6     4     7 2   
     7     5     6 1   
     8     5    25 1   
     9     6     7 1   
    10     7     8 1   
    11     8     9 1   
    12     8    26 1   
    13     9    10 2   
    14     9    11 1   
    15    11    27 1   
    16    11    28 1   
    17    11    29 1   
    18    12    13 1   
    19    12    30 1   
    20    13    14 ar  
    21    13    18 ar  
    22    14    15 ar  
    23    14    19 1   
    24    15    16 ar  
    25    15    31 1   
    26    16    17 ar  
    27    16    32 1   
    28    17    18 ar  
    29    17    33 1   
    30    18    34 1   
    31    19    20 1   
    32    19    24 1   
    33    20    21 1   
    34    20    35 1   
    35    20    36 1   
    36    21    22 1   
    37    21    37 1   
    38    21    38 1   
    39    22    23 1   
    40    22    39 1   
    41    22    40 1   
    42    23    24 1   
    43    23    41 1   
    44    23    42 1   
    45    24    43 1   
    46    24    44 1   
@<TRIPOS>SUBSTRUCTURE
     1 2HV         1 TEMP              0 ****  ****    0 ROOT
