@<TRIPOS>MOLECULE
molecule
   44    46     1     0     0
SMALL
bcc


@<TRIPOS>ATOM
      1 O1           0.0000     0.0000     0.0000 o          1 2HV      -0.603100
      2 C5           1.2160     0.0000     0.0000 c          1 2HV       0.597600
      3 C3           1.9530     0.0000     1.2740 cc         1 2HV       0.321800
      4 N1           3.2880     0.0070     1.3330 nd         1 2HV      -0.724000
      5 C4           1.3300    -0.0010     2.4710 cd         1 2HV      -0.196400
      6 S            2.5030    -0.0010     3.7150 ss         1 2HV      -0.050300
      7 C2           3.7970     0.0060     2.5230 cc         1 2HV       0.547300
      8 N            5.1560     0.0120     2.8130 ns         1 2HV      -0.521400
      9 C1           5.5700     0.0090     4.0970 c          1 2HV       0.656100
     10 O            4.7570     0.0020     4.9970 o          1 2HV      -0.583100
     11 C            7.0440     0.0160     4.4120 c3         1 2HV      -0.164100
     12 N2           1.8900    -0.0040    -1.1670 ns         1 2HV      -0.443100
     13 C6           1.1940    -0.1270    -2.3770 ca         1 2HV       0.086600
     14 C11          1.7530     0.3630    -3.5580 ca         1 2HV       0.037600
     15 C10          1.0600     0.2380    -4.7520 ca         1 2HV      -0.143000
     16 C9          -0.1830    -0.3690    -4.7700 ca         1 2HV      -0.147000
     17 C8          -0.7370    -0.8530    -3.5990 ca         1 2HV      -0.111000
     18 C7          -0.0490    -0.7390    -2.4050 ca         1 2HV      -0.141000
     19 N3           3.0100     0.9780    -3.5380 nh         1 2HV      -0.623000
     20 C16          3.9600     0.2600    -4.3970 c3         1 2HV       0.169800
     21 C15          5.3550     0.8700    -4.2390 c3         1 2HV      -0.080900
     22 C14          5.3050     2.3510    -4.6250 c3         1 2HV      -0.083400
     23 C13          4.2740     3.0650    -3.7480 c3         1 2HV      -0.080900
     24 C12          2.9100     2.3920    -3.9200 c3         1 2HV       0.169800
     25 H4           0.2570    -0.0050     2.6200 h4         1 2HV       0.203000
     26 H3           5.8270    -0.0120     2.0710 hn         1 2HV       0.345500
     27 H1           7.1830     0.0260     5.4870 hc         1 2HV       0.070033
     28 H2           7.5020     0.8970     3.9810 hc         1 2HV       0.070033
     29 H            7.5060    -0.8720     3.9970 hc         1 2HV       0.070033
     30 H5           2.8740     0.1760    -1.1750 hn         1 2HV       0.356500
     31 H9           1.4900     0.6170    -5.6720 ha         1 2HV       0.131000
     32 H8          -0.7250    -0.4640    -5.7030 ha         1 2HV       0.127000
     33 H7          -1.7090    -1.3300    -3.6190 ha         1 2HV       0.132000
     34 H6          -0.4860    -1.1190    -1.4900 ha         1 2HV       0.174000
     35 H18          3.9890    -0.7830    -4.1080 h1         1 2HV       0.039450
     36 H19          3.6460     0.3450    -5.4310 h1         1 2HV       0.039450
     37 H16          5.6740     0.7760    -3.2080 hc         1 2HV       0.047950
     38 H17          6.0500     0.3520    -4.8880 hc         1 2HV       0.047950
     39 H14          6.2800     2.7970    -4.4700 hc         1 2HV       0.040200
     40 H15          5.0200     2.4440    -5.6660 hc         1 2HV       0.040200
     41 H12          4.5780     3.0020    -2.7100 hc         1 2HV       0.047950
     42 H13          4.2030     4.1040    -4.0470 hc         1 2HV       0.047950
     43 H11          2.6020     2.4640    -4.9560 h1         1 2HV       0.039450
     44 H10          2.1830     2.8850    -3.2860 h1         1 2HV       0.039450
@<TRIPOS>BOND
     1    22    23 1   
     2    22    21 1   
     3    11     9 1   
     4    23    24 1   
     5    21    20 1   
     6     9     8 1   
     7     9    10 2   
     8    24    19 1   
     9    20    19 1   
    10     8     7 1   
    11    19    14 1   
    12     7     4 2   
    13     7     6 1   
    14     4     3 1   
    15    14    15 ar  
    16    14    13 ar  
    17    15    16 ar  
    18     6     5 1   
    19    12    13 1   
    20    12     2 1   
    21    13    18 ar  
    22     3     2 1   
    23     3     5 2   
    24    16    17 ar  
    25     2     1 2   
    26    18    17 ar  
    27     5    25 1   
    28     8    26 1   
    29    11    27 1   
    30    11    28 1   
    31    11    29 1   
    32    12    30 1   
    33    15    31 1   
    34    16    32 1   
    35    17    33 1   
    36    18    34 1   
    37    20    35 1   
    38    20    36 1   
    39    21    37 1   
    40    21    38 1   
    41    22    39 1   
    42    22    40 1   
    43    23    41 1   
    44    23    42 1   
    45    24    43 1   
    46    24    44 1   
@<TRIPOS>SUBSTRUCTURE
     1 2HV         1 TEMP              0 ****  ****    0 ROOT
