@<TRIPOS>MOLECULE
molecule
   43    45     1     0     0
SMALL
bcc


@<TRIPOS>ATOM
      1 O            0.0000     0.0000     0.0000 o          1 2HW      -0.604100
      2 C10          1.2160     0.0000     0.0000 c          1 2HW       0.597600
      3 C11          1.9550     0.0000     1.2790 ca         1 2HW       0.160500
      4 C14          1.2610     0.1170     2.4940 ca         1 2HW       0.646900
      5 N6          -0.1170     0.2330     2.4990 nv         1 2HW      -0.986500
      6 N5           1.9350     0.1160     3.6390 nb         1 2HW      -0.713000
      7 C13          3.2500     0.0040     3.6300 ca         1 2HW       0.383900
      8 C12          3.9360    -0.1120     2.4290 ca         1 2HW       0.222900
      9 N4           3.2800    -0.1170     1.2860 nb         1 2HW      -0.629000
     10 N3           1.8900    -0.0060    -1.1670 ns         1 2HW      -0.450100
     11 C9           1.1930     0.0800    -2.3790 ca         1 2HW      -0.028700
     12 C8          -0.0520    -0.5100    -2.5170 ca         1 2HW       0.432200
     13 N2          -0.7130    -0.4320    -3.6580 nb         1 2HW      -0.648000
     14 C7          -0.2250     0.2030    -4.7050 ca         1 2HW       0.418200
     15 C6           1.0100     0.8180    -4.6520 ca         1 2HW      -0.276300
     16 C5           1.7420     0.7680    -3.4690 ca         1 2HW       0.035600
     17 N1           2.9920     1.3770    -3.3740 nh         1 2HW      -0.599000
     18 C3           2.8820     2.8320    -3.5350 c3         1 2HW       0.159800
     19 C2           4.2460     3.4790    -3.2820 c3         1 2HW      -0.073400
     20 C1           5.2670     2.9130    -4.2730 c3         1 2HW      -0.104400
     21 C4           3.9310     0.8040    -4.3480 c3         1 2HW       0.149800
     22 C            5.3260     1.3900    -4.1180 c3         1 2HW       0.093500
     23 N            6.2600     0.8340    -5.1060 nz         1 2HW      -0.809600
     24 H18         -0.6500    -0.1670     3.2460 hn         1 2HW       0.461800
     25 H17         -0.5780     0.7430     1.7720 hn         1 2HW       0.461800
     26 H16          3.7980     0.0050     4.5650 h4         1 2HW       0.041100
     27 H15          5.0150    -0.2050     2.4310 h4         1 2HW       0.033100
     28 H14          2.8900     0.0300    -1.1640 hn         1 2HW       0.347500
     29 H13         -0.4890    -1.0410    -1.6800 h4         1 2HW       0.075100
     30 H12         -0.8000     0.2410    -5.6220 h4         1 2HW       0.036100
     31 H11          1.4010     1.3390    -5.5180 ha         1 2HW       0.132000
     32 H7           2.5590     3.0590    -4.5440 h1         1 2HW       0.067200
     33 H8           2.1630     3.2200    -2.8240 h1         1 2HW       0.067200
     34 H5           4.1670     4.5510    -3.4190 hc         1 2HW       0.080200
     35 H6           4.5660     3.2610    -2.2700 hc         1 2HW       0.080200
     36 H4           4.9660     3.1620    -5.2830 hc         1 2HW       0.063700
     37 H3           6.2430     3.3340    -4.0660 hc         1 2HW       0.063700
     38 H10          3.9670    -0.2710    -4.2230 h1         1 2HW       0.057200
     39 H9           3.6000     1.0450    -5.3510 h1         1 2HW       0.057200
     40 H            5.6600     1.1430    -3.1180 hx         1 2HW       0.130700
     41 H1           5.9500     1.0690    -6.0280 hn         1 2HW       0.455133
     42 H2           6.2940    -0.1620    -5.0090 hn         1 2HW       0.455133
     43 HN3          7.1720     1.2150    -4.9540 hn         1 2HW       0.455133
@<TRIPOS>BOND
     1    23    22 1   
     2    20    22 1   
     3    20    19 1   
     4    22    21 1   
     5    19    18 1   
     6    21    17 1   
     7    18    17 1   
     8    17    16 1   
     9    15    16 ar  
    10    15    14 ar  
    11    16    11 ar  
    12     8     9 ar  
    13     8     7 ar  
    14     9     3 ar  
    15    14    13 ar  
    16    11    10 1   
    17    11    12 ar  
    18     7     6 ar  
    19    10     2 1   
    20     3     2 1   
    21     3     4 ar  
    22    13    12 ar  
    23     2     1 2   
    24     6     4 ar  
    25     4     5 1   
    26     5    24 1   
    27     5    25 1   
    28     7    26 1   
    29     8    27 1   
    30    10    28 1   
    31    12    29 1   
    32    14    30 1   
    33    15    31 1   
    34    18    32 1   
    35    18    33 1   
    36    19    34 1   
    37    19    35 1   
    38    20    36 1   
    39    20    37 1   
    40    21    38 1   
    41    21    39 1   
    42    22    40 1   
    43    23    41 1   
    44    23    42 1   
    45    43    23 1   
@<TRIPOS>SUBSTRUCTURE
     1 2HW         1 TEMP              0 ****  ****    0 ROOT
