@<TRIPOS>MOLECULE
molecule
   56    59     1     0     0
SMALL
bcc


@<TRIPOS>ATOM
      1 C1           0.0000     0.0000     0.0000 c3         1 2HX      -0.077700
      2 C2           1.5300     0.0000     0.0000 c3         1 2HX       0.162800
      3 N3           2.0210     0.0000     1.3840 nh         1 2HX      -0.596000
      4 C4           1.5880     1.2050     2.1010 c3         1 2HX       0.149800
      5 C5           0.0590     1.2410     2.1630 c3         1 2HX       0.083500
      6 C6          -0.5060     1.2400     0.7400 c3         1 2HX       0.130100
      7 C7           3.4080    -0.1320     1.4220 ca         1 2HX       0.040600
      8 C8           4.2330     0.8110     0.8150 ca         1 2HX      -0.277300
      9 C9           5.6020     0.6440     0.8750 ca         1 2HX       0.420200
     10 N10          6.1340    -0.3900     1.4970 nb         1 2HX      -0.648000
     11 C11          5.3910    -1.3090     2.0870 ca         1 2HX       0.432200
     12 C12          4.0090    -1.2140     2.0780 ca         1 2HX      -0.029700
     13 N13          3.2250    -2.1880     2.7100 ns         1 2HX      -0.453100
     14 C14         -0.5110     0.0210    -1.4420 c3         1 2HX      -0.088100
     15 C15          3.6370    -3.4710     2.7380 c          1 2HX       0.585600
     16 C16          2.7620    -4.5170     3.3130 ca         1 2HX       0.345800
     17 O17          4.7280    -3.7700     2.2910 o          1 2HX      -0.583100
     18 C18          3.1950    -5.8410     3.3390 ca         1 2HX      -0.147300
     19 C19          2.3710    -6.8150     3.8780 ca         1 2HX      -0.138000
     20 C20          1.1350    -6.4340     4.3780 ca         1 2HX       0.071600
     21 C21          0.7610    -5.0870     4.3220 cp         1 2HX       0.437800
     22 N22          1.5760    -4.1820     3.8040 nb         1 2HX      -0.657000
     23 C23         -0.5560    -4.6670     4.8590 cp         1 2HX      -0.230500
     24 F24          0.3010    -7.3540     4.9130 f          1 2HX      -0.109900
     25 N25         -0.3750     2.4590     2.8630 nz         1 2HX      -0.809600
     26 C26         -1.7170    -5.3410     4.4740 ca         1 2HX       0.186900
     27 C27         -2.9410    -4.9440     4.9790 ca         1 2HX      -0.189000
     28 C28         -3.0170    -3.8830     5.8630 ca         1 2HX      -0.064000
     29 C29         -1.8710    -3.2120     6.2480 ca         1 2HX      -0.189000
     30 C30         -0.6400    -3.6020     5.7570 ca         1 2HX       0.186900
     31 F31          0.4790    -2.9450     6.1340 f          1 2HX      -0.122900
     32 F32         -1.6440    -6.3760     3.6100 f          1 2HX      -0.122900
     33 O33         -1.9330     1.2170     0.7930 oh         1 2HX      -0.598800
     34 H1          -0.3590    -0.8900     0.5030 hc         1 2HX       0.096700
     35 H2           1.8890    -0.8860    -0.5090 h1         1 2HX       0.067700
     36 H3           1.8890     0.8860    -0.5090 h1         1 2HX       0.067700
     37 H4           1.9470     2.0830     1.5780 h1         1 2HX       0.056700
     38 H5           1.9880     1.1890     3.1070 h1         1 2HX       0.056700
     39 H6          -0.2990     0.3670     2.6930 hx         1 2HX       0.143700
     40 H7          -0.1740     2.1310     0.2200 h1         1 2HX       0.046700
     41 H8           3.8070     1.6640     0.3010 ha         1 2HX       0.132000
     42 H9           6.2490     1.3740     0.4040 h4         1 2HX       0.036100
     43 H10          5.8680    -2.1420     2.5890 h4         1 2HX       0.076100
     44 H11          2.3800    -1.9240     3.1780 hn         1 2HX       0.348500
     45 H12          0.0440    -0.6990    -2.0320 hc         1 2HX       0.054367
     46 H13         -0.3750     1.0110    -1.8590 hc         1 2HX       0.054367
     47 H14         -1.5630    -0.2360    -1.4560 hc         1 2HX       0.054367
     48 H15          4.2200    -6.0810     3.0820 ha         1 2HX       0.178000
     49 H16          2.7700    -7.7960     4.1090 ha         1 2HX       0.173000
     50 H17         -1.3650     2.4250     3.0090 hn         1 2HX       0.455467
     51 H18          0.0900     2.5190     3.7480 hn         1 2HX       0.455467
     52 H20         -3.8430    -5.4650     4.6800 ha         1 2HX       0.155500
     53 H21         -3.9790    -3.5760     6.2550 ha         1 2HX       0.150000
     54 H22         -1.9390    -2.3780     6.9370 ha         1 2HX       0.155500
     55 H23         -2.2770     1.9660     0.3360 ho         1 2HX       0.423000
     56 H253        -0.1340     3.2620     2.3170 hn         1 2HX       0.455467
@<TRIPOS>BOND
     1    25     5 1   
     2    33     6 1   
     3     6     5 1   
     4     6     1 1   
     5     5     4 1   
     6    28    29 ar  
     7    28    27 ar  
     8    14     1 1   
     9    29    30 ar  
    10     4     3 1   
    11     1     2 1   
    12    27    26 ar  
    13     2     3 1   
    14     3     7 1   
    15    30    31 1   
    16    30    23 ar  
    17    26    23 ar  
    18    26    32 1   
    19     8     7 ar  
    20     8     9 ar  
    21    23    21 1   
    22     7    12 ar  
    23     9    10 ar  
    24    12    13 1   
    25    12    11 ar  
    26    21    22 ar  
    27    21    20 ar  
    28    22    16 ar  
    29    13    15 1   
    30    10    11 ar  
    31    24    20 1   
    32    20    19 ar  
    33    16    15 1   
    34    16    18 ar  
    35    15    17 2   
    36    19    18 ar  
    37     1    34 1   
    38     2    35 1   
    39     2    36 1   
    40     4    37 1   
    41     4    38 1   
    42     5    39 1   
    43     6    40 1   
    44     8    41 1   
    45     9    42 1   
    46    11    43 1   
    47    13    44 1   
    48    14    45 1   
    49    14    46 1   
    50    14    47 1   
    51    18    48 1   
    52    19    49 1   
    53    25    50 1   
    54    25    51 1   
    55    27    52 1   
    56    28    53 1   
    57    29    54 1   
    58    33    55 1   
    59    56    25 1   
@<TRIPOS>SUBSTRUCTURE
     1 2HX         1 TEMP              0 ****  ****    0 ROOT
