@<TRIPOS>MOLECULE
2HX
   56    59     1     0     0
SMALL
bcc


@<TRIPOS>ATOM
      1 C1           0.0000     0.0000     0.0000 c3         1 2HX      -0.062700
      2 C2           1.5300     0.0000     0.0000 c3         1 2HX       0.140800
      3 N3           2.0210     0.0000     1.3840 nh         1 2HX      -0.366000
      4 C4           1.5880     1.2050     2.1010 c3         1 2HX       0.146800
      5 C5           0.0590     1.2410     2.1630 c3         1 2HX      -0.107500
      6 C6          -0.5060     1.2400     0.7400 c3         1 2HX       0.184100
      7 C7           3.4080    -0.1320     1.4220 ca         1 2HX      -0.052400
      8 C8           4.2330     0.8110     0.8150 ca         1 2HX      -0.240300
      9 C9           5.6020     0.6440     0.8750 ca         1 2HX       0.409200
     10 N10          6.1340    -0.3900     1.4970 nb         1 2HX      -0.531000
     11 C11          5.3910    -1.3090     2.0870 ca         1 2HX       0.408200
     12 C12          4.0090    -1.2140     2.0780 ca         1 2HX      -0.167700
     13 N13          3.2250    -2.1880     2.7100 ns         1 2HX      -0.006100
     14 C14         -0.5110     0.0210    -1.4420 c3         1 2HX       0.012900
     15 C15          3.6370    -3.4710     2.7380 c          1 2HX       0.482600
     16 C16          2.7620    -4.5170     3.3130 ca         1 2HX       0.285800
     17 O17          4.7280    -3.7700     2.2910 o          1 2HX      -0.620100
     18 C18          3.1950    -5.8410     3.3390 ca         1 2HX      -0.105300
     19 C19          2.3710    -6.8150     3.8780 ca         1 2HX      -0.104000
     20 C20          1.1350    -6.4340     4.3780 ca         1 2HX       0.056600
     21 C21          0.7610    -5.0870     4.3220 cp         1 2HX       0.398800
     22 N22          1.5760    -4.1820     3.8040 nb         1 2HX      -0.539000
     23 C23         -0.5560    -4.6670     4.8590 cp         1 2HX      -0.216500
     24 F24          0.3010    -7.3540     4.9130 f          1 2HX      -0.106900
     25 N25         -0.3750     2.4590     2.8630 nz         1 2HX       0.081400
     26 C26         -1.7170    -5.3410     4.4740 ca         1 2HX       0.157900
     27 C27         -2.9410    -4.9440     4.9790 ca         1 2HX      -0.150000
     28 C28         -3.0170    -3.8830     5.8630 ca         1 2HX      -0.035000
     29 C29         -1.8710    -3.2120     6.2480 ca         1 2HX      -0.150000
     30 C30         -0.6400    -3.6020     5.7570 ca         1 2HX       0.157900
     31 F31          0.4790    -2.9450     6.1340 f          1 2HX      -0.119400
     32 F32         -1.6440    -6.3760     3.6100 f          1 2HX      -0.119400
     33 O33         -1.9330     1.2170     0.7930 oh         1 2HX      -0.577800
     34 H1          -0.3590    -0.8900     0.5030 hc         1 2HX       0.064700
     35 H2           1.8890    -0.8860    -0.5090 h1         1 2HX       0.039200
     36 H3           1.8890     0.8860    -0.5090 h1         1 2HX       0.039200
     37 H4           1.9470     2.0830     1.5780 h1         1 2HX       0.028700
     38 H5           1.9880     1.1890     3.1070 h1         1 2HX       0.028700
     39 H6          -0.2990     0.3670     2.6930 hx         1 2HX       0.117700
     40 H7          -0.1740     2.1310     0.2200 h1         1 2HX       0.017700
     41 H8           3.8070     1.6640     0.3010 ha         1 2HX       0.111000
     42 H9           6.2490     1.3740     0.4040 h4         1 2HX      -0.009900
     43 H10          5.8680    -2.1420     2.5890 h4         1 2HX       0.036100
     44 H11          2.3800    -1.9240     3.1780 hn         1 2HX       0.187500
     45 H12          0.0440    -0.6990    -2.0320 hc         1 2HX       0.018367
     46 H13         -0.3750     1.0110    -1.8590 hc         1 2HX       0.018367
     47 H14         -1.5630    -0.2360    -1.4560 hc         1 2HX       0.018367
     48 H15          4.2200    -6.0810     3.0820 ha         1 2HX       0.145000
     49 H16          2.7700    -7.7960     4.1090 ha         1 2HX       0.139000
     50 H17         -1.3650     2.4250     3.0090 hn         1 2HX       0.224467
     51 H18          0.0900     2.5190     3.7480 hn         1 2HX       0.224467
     52 H20         -3.8430    -5.4650     4.6800 ha         1 2HX       0.127000
     53 H21         -3.9790    -3.5760     6.2550 ha         1 2HX       0.115000
     54 H22         -1.9390    -2.3780     6.9370 ha         1 2HX       0.127000
     55 H23         -2.2770     1.9660     0.3360 ho         1 2HX       0.412000
     56 H253        -0.1340     3.2620     2.3170 hn         1 2HX       0.224467
@<TRIPOS>BOND
     1     1     2 1   
     2     1     6 1   
     3     1    14 1   
     4     1    34 1   
     5     2     3 1   
     6     2    35 1   
     7     2    36 1   
     8     3     4 1   
     9     3     7 1   
    10     4     5 1   
    11     4    37 1   
    12     4    38 1   
    13     5     6 1   
    14     5    25 1   
    15     5    39 1   
    16     6    33 1   
    17     6    40 1   
    18     7     8 ar  
    19     7    12 ar  
    20     8     9 ar  
    21     8    41 1   
    22     9    10 ar  
    23     9    42 1   
    24    10    11 ar  
    25    11    12 ar  
    26    11    43 1   
    27    12    13 1   
    28    13    15 1   
    29    13    44 1   
    30    14    45 1   
    31    14    46 1   
    32    14    47 1   
    33    15    16 1   
    34    15    17 2   
    35    16    18 ar  
    36    16    22 ar  
    37    18    19 ar  
    38    18    48 1   
    39    19    20 ar  
    40    19    49 1   
    41    20    21 ar  
    42    20    24 1   
    43    21    22 ar  
    44    21    23 1   
    45    23    26 ar  
    46    23    30 ar  
    47    25    50 1   
    48    25    51 1   
    49    25    56 1   
    50    26    27 ar  
    51    26    32 1   
    52    27    28 ar  
    53    27    52 1   
    54    28    29 ar  
    55    28    53 1   
    56    29    30 ar  
    57    29    54 1   
    58    30    31 1   
    59    33    55 1   
@<TRIPOS>SUBSTRUCTURE
     1 2HX         1 TEMP              0 ****  ****    0 ROOT
