@<TRIPOS>MOLECULE
2HY
   50    52     1     0     0
SMALL
bcc


@<TRIPOS>ATOM
      1 C1           0.0000     0.0000     0.0000 c          1 2HY       0.593500
      2 F1           2.2410    -2.8830    -4.5830 f          1 2HY      -0.205633
      3 N1           1.3380     0.0000     0.0000 n          1 2HY       0.159800
      4 O1          -0.5880    -0.0010    -1.0640 o          1 2HY      -0.706500
      5 C2           0.0060    -0.0120     2.4240 c3         1 2HY       0.149200
      6 F2           3.5100    -3.4900    -2.7840 f          1 2HY      -0.205633
      7 N2          -0.7170    -0.0060     1.1410 ns         1 2HY      -0.185900
      8 O2           3.5180     0.0060     3.4610 o          1 2HY      -0.614000
      9 C3           1.5200     0.0000     2.3580 ce         1 2HY      -0.327400
     10 F3           4.4600    -2.3460    -4.5160 f          1 2HY      -0.205633
     11 N3          -1.9520     5.5110     5.9610 n1         1 2HY      -0.379800
     12 O3           1.7030    -0.0200     4.7460 os         1 2HY      -0.397900
     13 C4           2.0970     0.0000     1.1380 c2         1 2HY      -0.003600
     14 C5           2.0000    -0.0010    -1.2350 ca         1 2HY      -0.110400
     15 C6           2.3100    -1.2020    -1.8580 ca         1 2HY      -0.015000
     16 C7           2.9620    -1.1990    -3.0760 ca         1 2HY      -0.206300
     17 C8           3.3070    -0.0010    -3.6740 ca         1 2HY      -0.023000
     18 C9           2.9990     1.1970    -3.0570 ca         1 2HY      -0.101000
     19 C10          2.3420     1.2010    -1.8420 ca         1 2HY      -0.041000
     20 C11          3.3000    -2.5030    -3.7520 c3         1 2HY       0.641200
     21 C13         -0.4260     1.2020     3.2060 ca         1 2HY      -0.113300
     22 C14         -0.6330     1.1040     4.5700 ca         1 2HY      -0.084000
     23 C15         -1.0290     2.2100     5.2930 ca         1 2HY      -0.075000
     24 C16         -1.2200     3.4310     4.6440 ca         1 2HY       0.031000
     25 C17         -1.0070     3.5240     3.2670 ca         1 2HY      -0.075000
     26 C18         -0.6070     2.4100     2.5570 ca         1 2HY      -0.084000
     27 C19         -1.6310     4.5850     5.3870 cg         1 2HY       0.229800
     28 C20          2.3030    -0.0040     3.5380 c          1 2HY       0.749300
     29 C21          2.5540    -0.0240     5.8930 c3         1 2HY       0.207400
     30 C22          1.7000    -0.0420     7.1630 c3         1 2HY       0.211400
     31 C23          3.6000    -0.0000     1.0270 c3         1 2HY       0.021100
     32 O33          0.9710    -1.2690     7.2290 oh         1 2HY      -0.588800
     33 H2          -0.2960    -0.8970     2.9710 h1         1 2HY       0.039700
     34 HN2         -1.7180    -0.0070     1.1170 hn         1 2HY       0.215500
     35 H6           2.0410    -2.1410    -1.3900 ha         1 2HY       0.126000
     36 H8           3.8200    -0.0010    -4.6280 ha         1 2HY       0.120000
     37 H9           3.2680     2.1340    -3.5290 ha         1 2HY       0.115000
     38 H10          2.1010     2.1400    -1.3580 ha         1 2HY       0.113000
     39 H14         -0.4850     0.1550     5.0730 ha         1 2HY       0.125000
     40 H15         -1.1910     2.1310     6.3610 ha         1 2HY       0.114500
     41 H17         -1.1510     4.4690     2.7580 ha         1 2HY       0.114500
     42 H18         -0.4420     2.4800     1.4890 ha         1 2HY       0.125000
     43 H21          3.1860    -0.9040     5.8700 h1         1 2HY       0.017200
     44 H21A         3.1730     0.8650     5.8860 h1         1 2HY       0.017200
     45 H22          1.0050     0.7900     7.1420 h1         1 2HY      -0.002300
     46 H22A         2.3410     0.0450     8.0310 h1         1 2HY      -0.002300
     47 H23          3.9960    -0.8900     1.5000 hc         1 2HY       0.041033
     48 H23A         3.9980     0.8790     1.5200 hc         1 2HY       0.041033
     49 H23B         3.8850     0.0110    -0.0180 hc         1 2HY       0.041033
     50 HO33         0.8700    -1.5270     8.1300 ho         1 2HY       0.391000
@<TRIPOS>BOND
     1     1     3 1   
     2     1     4 2   
     3     1     7 1   
     4     2    20 1   
     5     3    13 1   
     6     3    14 1   
     7     5     7 1   
     8     5     9 1   
     9     5    21 1   
    10     5    33 1   
    11     6    20 1   
    12     7    34 1   
    13     8    28 2   
    14     9    13 2   
    15     9    28 1   
    16    10    20 1   
    17    11    27 3   
    18    12    28 1   
    19    12    29 1   
    20    13    31 1   
    21    14    15 ar  
    22    14    19 ar  
    23    15    16 ar  
    24    15    35 1   
    25    16    17 ar  
    26    16    20 1   
    27    17    18 ar  
    28    17    36 1   
    29    18    19 ar  
    30    18    37 1   
    31    19    38 1   
    32    21    22 ar  
    33    21    26 ar  
    34    22    23 ar  
    35    22    39 1   
    36    23    24 ar  
    37    23    40 1   
    38    24    25 ar  
    39    24    27 1   
    40    25    26 ar  
    41    25    41 1   
    42    26    42 1   
    43    29    30 1   
    44    29    43 1   
    45    29    44 1   
    46    30    32 1   
    47    30    45 1   
    48    30    46 1   
    49    31    47 1   
    50    31    48 1   
    51    31    49 1   
    52    32    50 1   
@<TRIPOS>SUBSTRUCTURE
     1 2HY         1 TEMP              0 ****  ****    0 ROOT
