@<TRIPOS>MOLECULE
molecule
   50    52     1     0     0
SMALL
bcc


@<TRIPOS>ATOM
      1 C1           0.0000     0.0000     0.0000 c          1 2HY       0.815500
      2 F1           2.2410    -2.8830    -4.5830 f          1 2HY      -0.220633
      3 N1           1.3380     0.0000     0.0000 n          1 2HY      -0.283200
      4 O1          -0.5880    -0.0010    -1.0640 o          1 2HY      -0.654500
      5 C2           0.0060    -0.0120     2.4240 c3         1 2HY       0.213200
      6 F2           3.5100    -3.4900    -2.7840 f          1 2HY      -0.220633
      7 N2          -0.7170    -0.0060     1.1410 ns         1 2HY      -0.576900
      8 O2           3.5180     0.0060     3.4610 o          1 2HY      -0.575000
      9 C3           1.5200     0.0000     2.3580 ce         1 2HY      -0.300400
     10 F3           4.4600    -2.3460    -4.5160 f          1 2HY      -0.220633
     11 N3          -1.9520     5.5110     5.9610 n1         1 2HY      -0.363800
     12 O3           1.7030    -0.0200     4.7460 os         1 2HY      -0.412900
     13 C4           2.0970     0.0000     1.1380 c2         1 2HY       0.150400
     14 C5           2.0000    -0.0010    -1.2350 ca         1 2HY       0.036600
     15 C6           2.3100    -1.2020    -1.8580 ca         1 2HY      -0.063000
     16 C7           2.9620    -1.1990    -3.0760 ca         1 2HY      -0.176300
     17 C8           3.3070    -0.0010    -3.6740 ca         1 2HY      -0.069000
     18 C9           2.9990     1.1970    -3.0570 ca         1 2HY      -0.128000
     19 C10          2.3420     1.2010    -1.8420 ca         1 2HY      -0.083000
     20 C11          3.3000    -2.5030    -3.7520 c3         1 2HY       0.676200
     21 C13         -0.4260     1.2020     3.2060 ca         1 2HY      -0.095300
     22 C14         -0.6330     1.1040     4.5700 ca         1 2HY      -0.108500
     23 C15         -1.0290     2.2100     5.2930 ca         1 2HY      -0.098500
     24 C16         -1.2200     3.4310     4.6440 ca         1 2HY      -0.017000
     25 C17         -1.0070     3.5240     3.2670 ca         1 2HY      -0.098500
     26 C18         -0.6070     2.4100     2.5570 ca         1 2HY      -0.108500
     27 C19         -1.6310     4.5850     5.3870 cg         1 2HY       0.238800
     28 C20          2.3030    -0.0040     3.5380 c          1 2HY       0.681300
     29 C21          2.5540    -0.0240     5.8930 c3         1 2HY       0.143400
     30 C22          1.7000    -0.0420     7.1630 c3         1 2HY       0.136400
     31 C23          3.6000    -0.0000     1.0270 c3         1 2HY      -0.064900
     32 O33          0.9710    -1.2690     7.2290 oh         1 2HY      -0.604800
     33 H2          -0.2960    -0.8970     2.9710 h1         1 2HY       0.072700
     34 HN2         -1.7180    -0.0070     1.1170 hn         1 2HY       0.367500
     35 H6           2.0410    -2.1410    -1.3900 ha         1 2HY       0.160000
     36 H8           3.8200    -0.0010    -4.6280 ha         1 2HY       0.152000
     37 H9           3.2680     2.1340    -3.5290 ha         1 2HY       0.147000
     38 H10          2.1010     2.1400    -1.3580 ha         1 2HY       0.147000
     39 H14         -0.4850     0.1550     5.0730 ha         1 2HY       0.152000
     40 H15         -1.1910     2.1310     6.3610 ha         1 2HY       0.142000
     41 H17         -1.1510     4.4690     2.7580 ha         1 2HY       0.142000
     42 H18         -0.4420     2.4800     1.4890 ha         1 2HY       0.152000
     43 H21          3.1860    -0.9040     5.8700 h1         1 2HY       0.057200
     44 H21A         3.1730     0.8650     5.8860 h1         1 2HY       0.057200
     45 H22          1.0050     0.7900     7.1420 h1         1 2HY       0.038700
     46 H22A         2.3410     0.0450     8.0310 h1         1 2HY       0.038700
     47 H23          3.9960    -0.8900     1.5000 hc         1 2HY       0.074033
     48 H23A         3.9980     0.8790     1.5200 hc         1 2HY       0.074033
     49 H23B         3.8850     0.0110    -0.0180 hc         1 2HY       0.074033
     50 HO33         0.8700    -1.5270     8.1300 ho         1 2HY       0.404000
@<TRIPOS>BOND
     1     1     3 1
     2     1     4 2
     3     1     7 1
     4     2    20 1
     5     3    13 1
     6     3    14 1
     7     5     7 1
     8     5     9 1
     9     5    21 1
    10     6    20 1
    11     8    28 2
    12     9    13 2
    13     9    28 1
    14    10    20 1
    15    11    27 3
    16    12    28 1
    17    12    29 1
    18    13    31 1
    19    14    15 ar
    20    14    19 ar
    21    15    16 ar
    22    16    17 ar
    23    16    20 1
    24    17    18 ar
    25    18    19 ar
    26    21    22 ar
    27    21    26 ar
    28    22    23 ar
    29    23    24 ar
    30    24    25 ar
    31    24    27 1
    32    25    26 ar
    33    29    30 1
    34    30    32 1
    35     5    33 1
    36     7    34 1
    37    15    35 1
    38    17    36 1
    39    18    37 1
    40    19    38 1
    41    22    39 1
    42    23    40 1
    43    25    41 1
    44    26    42 1
    45    29    43 1
    46    29    44 1
    47    30    45 1
    48    30    46 1
    49    31    47 1
    50    31    48 1
    51    31    49 1
    52    32    50 1
@<TRIPOS>SUBSTRUCTURE
     1 2HY         1 TEMP              0 ****  ****    0 ROOT
