@<TRIPOS>MOLECULE
molecule
   30    31     1     0     0
SMALL
bcc


@<TRIPOS>ATOM
      1 C1           0.0000     0.0000     0.0000 cp         1 2HZ      -0.074000
      2 C2           1.3940     0.0000     0.0000 ca         1 2HZ      -0.142000
      3 C3           2.0910     0.0000     1.1930 ca         1 2HZ      -0.127000
      4 C5           1.4140     0.0020     2.3950 ca         1 2HZ      -0.068000
      5 C6           0.0140     0.0020     2.4100 ca         1 2HZ       0.043200
      6 C7          -0.6930     0.0010     1.2050 ca         1 2HZ      -0.150000
      7 C9          -0.7100     0.0040     3.6910 ce         1 2HZ      -0.315200
      8 C10         -0.3030     0.8080     4.6950 cf         1 2HZ      -0.194200
      9 C11          0.7030     1.8390     4.4440 c          1 2HZ       0.954800
     10 O12          1.2190     2.5430     5.4730 o          1 2HZ      -0.766300
     11 O14          1.0750     2.0610     3.3080 o          1 2HZ      -0.766300
     12 C19         -0.7430     0.0050    -1.2840 cp         1 2HZ       0.006000
     13 C20         -2.1370     0.0100    -1.2860 ca         1 2HZ      -0.091000
     14 C22         -2.8230     0.0160    -2.4820 ca         1 2HZ      -0.136000
     15 C24         -2.1300     0.0150    -3.6800 ca         1 2HZ      -0.098000
     16 C26         -0.7480     0.0090    -3.6850 ca         1 2HZ      -0.154200
     17 N27         -0.0130     0.0080    -4.9690 no         1 2HZ       0.296200
     18 O28         -0.6270     0.0120    -6.0220 o          1 2HZ      -0.221000
     19 O29          1.2050     0.0030    -4.9750 o          1 2HZ      -0.221000
     20 C30         -0.0510     0.0090    -2.4930 ca         1 2HZ      -0.080000
     21 H1           1.9340    -0.0010    -0.9390 ha         1 2HZ       0.113000
     22 H2           3.1740    -0.0000     1.1850 ha         1 2HZ       0.120000
     23 H3           1.9650     0.0020     3.3270 ha         1 2HZ       0.144000
     24 H4          -1.7760     0.0010     1.2100 ha         1 2HZ       0.126000
     25 H5          -0.9650     0.7330     2.9310 ha         1 2HZ       0.132000
     26 H6           0.7490     0.5550     4.7530 ha         1 2HZ       0.058000
     27 H8          -2.6810     0.0110    -0.3490 ha         1 2HZ       0.153000
     28 H9          -3.9070     0.0200    -2.4840 ha         1 2HZ       0.137000
     29 H10         -2.6730     0.0190    -4.6180 ha         1 2HZ       0.152000
     30 H11          1.0320     0.0050    -2.4980 ha         1 2HZ       0.170000
@<TRIPOS>BOND
     1    19    17 1
     2    17    18 1
     3    17    16 1
     4    15    16 ar
     5    15    14 ar
     6    16    20 ar
     7    14    13 ar
     8    20    12 ar
     9    13    12 ar
    10    12     1 1
    11     2     1 ar
    12     2     3 ar
    13     1     6 ar
    14     3     4 ar
    15     6     5 ar
    16     4     5 ar
    17     5     7 1
    18    11     9 1
    19     7     8 2
    20     9     8 1
    21     9    10 1
    22     2    21 1
    23     3    22 1
    24     4    23 1
    25     6    24 1
    26     7    25 1
    27     8    26 1
    28    13    27 1
    29    14    28 1
    30    15    29 1
    31    20    30 1
@<TRIPOS>SUBSTRUCTURE
     1 2HZ         1 TEMP              0 ****  ****    0 ROOT
