@<TRIPOS>MOLECULE
2HZ
   30    31     1     0     0
SMALL
bcc


@<TRIPOS>ATOM
      1 C1           0.0000     0.0000     0.0000 cp         1 2HZ      -0.105000
      2 C2           1.3940     0.0000     0.0000 ca         1 2HZ      -0.097000
      3 C3           2.0910     0.0000     1.1930 ca         1 2HZ      -0.130000
      4 C5           1.4140     0.0020     2.3950 ca         1 2HZ       0.032000
      5 C6           0.0140     0.0020     2.4100 ca         1 2HZ       0.004200
      6 C7          -0.6930     0.0010     1.2050 ca         1 2HZ      -0.097000
      7 C9          -0.7100     0.0040     3.6910 ce         1 2HZ      -0.155200
      8 C10         -0.3030     0.8080     4.6950 cf         1 2HZ      -0.132200
      9 C11          0.7030     1.8390     4.4440 c          1 2HZ       0.948800
     10 O12          1.2190     2.5430     5.4730 o          1 2HZ      -0.877300
     11 O14          1.0750     2.0610     3.3080 o          1 2HZ      -0.877300
     12 C19         -0.7430     0.0050    -1.2840 cp         1 2HZ       0.014000
     13 C20         -2.1370     0.0100    -1.2860 ca         1 2HZ      -0.061000
     14 C22         -2.8230     0.0160    -2.4820 ca         1 2HZ      -0.119000
     15 C24         -2.1300     0.0150    -3.6800 ca         1 2HZ      -0.050000
     16 C26         -0.7480     0.0090    -3.6850 ca         1 2HZ      -0.448200
     17 N27         -0.0130     0.0080    -4.9690 no         1 2HZ       1.053200
     18 O28         -0.6270     0.0120    -6.0220 o          1 2HZ      -0.464500
     19 O29          1.2050     0.0030    -4.9750 o          1 2HZ      -0.464500
     20 C30         -0.0510     0.0090    -2.4930 ca         1 2HZ      -0.036000
     21 H1           1.9340    -0.0010    -0.9390 ha         1 2HZ       0.093000
     22 H2           3.1740    -0.0000     1.1850 ha         1 2HZ       0.095000
     23 H3           1.9650     0.0020     3.3270 ha         1 2HZ       0.124000
     24 H4          -1.7760     0.0010     1.2100 ha         1 2HZ       0.096000
     25 H5          -1.4570    -0.7570     3.8830 ha         1 2HZ       0.079000
     26 H6          -0.8390     0.8040     5.6370 ha         1 2HZ       0.084000
     27 H8          -2.6810     0.0110    -0.3490 ha         1 2HZ       0.123000
     28 H9          -3.9070     0.0200    -2.4840 ha         1 2HZ       0.104000
     29 H10         -2.6730     0.0190    -4.6180 ha         1 2HZ       0.122000
     30 H11          1.0320     0.0050    -2.4980 ha         1 2HZ       0.144000
@<TRIPOS>BOND
     1     1     2 ar  
     2     1     6 ar  
     3     1    12 1   
     4     2     3 ar  
     5     2    21 1   
     6     3     4 ar  
     7     3    22 1   
     8     4     5 ar  
     9     4    23 1   
    10     5     6 ar  
    11     5     7 1   
    12     6    24 1   
    13     7     8 2   
    14     7    25 1   
    15     8     9 1   
    16     8    26 1   
    17     9    10 1   
    18     9    11 1   
    19    12    13 ar  
    20    12    20 ar  
    21    13    14 ar  
    22    13    27 1   
    23    14    15 ar  
    24    14    28 1   
    25    15    16 ar  
    26    15    29 1   
    27    16    17 1   
    28    16    20 ar  
    29    17    18 1   
    30    17    19 1   
    31    20    30 1   
@<TRIPOS>SUBSTRUCTURE
     1 2HZ         1 TEMP              0 ****  ****    0 ROOT
