@<TRIPOS>MOLECULE
2IB
   15    15     1     0     0
SMALL
bcc


@<TRIPOS>ATOM
      1 C          -0.0040    0.0010   -0.0190 c3        1 2IB     -0.065800
      2 C1          1.4780    0.0010    0.0170 ca        1 2IB     -0.037300
      3 C2          2.1890   -0.0030    1.2240 ca        1 2IB      0.021900
      4 C3          3.5850   -0.0020    1.2140 ca        1 2IB     -0.095000
      5 C4          4.2840    0.0010    0.0090 ca        1 2IB     -0.139000
      6 C5          3.5830    0.0050   -1.1970 ca        1 2IB     -0.109000
      7 C6          2.1910    0.0040   -1.1910 ca        1 2IB     -0.136000
      8 I2          1.2560   -0.0080    3.0210 i         1 2IB     -0.149900
      9 H1         -0.3810    0.0010   -1.0720 hc        1 2IB      0.053367
     10 H2         -0.4080    0.9080    0.4960 hc        1 2IB      0.053367
     11 H3A        -0.4090   -0.9070    0.4960 hc        1 2IB      0.053367
     12 H3          4.1460   -0.0050    2.1620 ha        1 2IB      0.143000
     13 H4          5.3830    0.0020    0.0100 ha        1 2IB      0.137000
     14 H5          4.1290    0.0070   -2.1520 ha        1 2IB      0.134000
     15 H6          1.6400    0.0070   -2.1440 ha        1 2IB      0.136000
@<TRIPOS>BOND
     1    1    2 1   
     2    1    9 1   
     3    1   10 1   
     4    1   11 1   
     5    2    3 ar  
     6    2    7 ar  
     7    3    4 ar  
     8    3    8 1   
     9    4    5 ar  
    10    4   12 1   
    11    5    6 ar  
    12    5   13 1   
    13    6    7 ar  
    14    6   14 1   
    15    7   15 1   
@<TRIPOS>SUBSTRUCTURE
     1 2IB         1 TEMP              0 ****  ****    0 ROOT
