@<TRIPOS>MOLECULE
molecule
   15    15     1     0     0
SMALL
bcc


@<TRIPOS>ATOM
      1 C            0.0000     0.0000     0.0000 c3         1 2IB      -0.057800
      2 C1           1.5070     0.0000     0.0000 ca         1 2IB      -0.051300
      3 C2           2.1990     0.0000     1.1970 ca         1 2IB       0.052900
      4 C3           3.5820    -0.0050     1.1960 ca         1 2IB      -0.093000
      5 C4           4.2720     0.0010    -0.0000 ca         1 2IB      -0.136000
      6 C5           3.5800     0.0060    -1.1980 ca         1 2IB      -0.110000
      7 C6           2.1980     0.0060    -1.1970 ca         1 2IB      -0.129000
      8 I2           1.1520    -0.0090     3.0120 i          1 2IB      -0.174900
      9 H1          -0.3610    -0.8810     0.5160 hc         1 2IB       0.052033
     10 H2          -0.3610    -0.0060    -1.0210 hc         1 2IB       0.052033
     11 H3A         -0.3610     0.8880     0.5050 hc         1 2IB       0.052033
     12 H3           4.1240    -0.0070     2.1340 ha         1 2IB       0.141000
     13 H4           5.3550    -0.0010    -0.0010 ha         1 2IB       0.135000
     14 H5           4.1210     0.0110    -2.1360 ha         1 2IB       0.133000
     15 H6           1.6560     0.0100    -2.1350 ha         1 2IB       0.136000
@<TRIPOS>BOND
     1     1     2 1   
     2     1     9 1   
     3     1    10 1   
     4     1    11 1   
     5     2     3 ar  
     6     2     7 ar  
     7     3     4 ar  
     8     3     8 1   
     9     4     5 ar  
    10     4    12 1   
    11     5     6 ar  
    12     5    13 1   
    13     6     7 ar  
    14     6    14 1   
    15     7    15 1   
@<TRIPOS>SUBSTRUCTURE
     1 2IB         1 TEMP              0 ****  ****    0 ROOT
