@<TRIPOS>MOLECULE
molecule
   43    46     1     0     0
SMALL
bcc


@<TRIPOS>ATOM
      1 OAF          0.0000     0.0000     0.0000 o          1 2ID      -0.881167
      2 PBC          1.6100     0.0000     0.0000 p5         1 2ID       1.170900
      3 OAG          2.1460     0.0000     1.5180 o          1 2ID      -0.881167
      4 OAC          2.1030    -1.2070    -0.6980 o          1 2ID      -0.881167
      5 OAR          2.1470     1.3150    -0.7580 os         1 2ID      -0.576200
      6 CAW          1.9280     1.5550    -2.1500 c3         1 2ID       0.273100
      7 CAK          1.1630     2.8860    -2.3580 c3         1 2ID      -0.115400
      8 CBA          3.2710     1.7730    -2.8770 cx         1 2ID      -0.065000
      9 CAJ          3.5740     0.8770    -4.0800 c3         1 2ID       0.261400
     10 OAQ          3.2540    -0.4780    -3.7570 os         1 2ID      -0.523200
     11 PBB          3.4480    -1.6940    -4.7940 p5         1 2ID       1.225900
     12 OAD          5.0150    -1.8820    -5.1140 o          1 2ID      -0.912167
     13 OAE          2.8670    -3.0480    -4.1450 o          1 2ID      -0.912167
     14 OAB          2.7210    -1.3960    -6.0480 o          1 2ID      -0.912167
     15 CAL          4.4220     2.4090    -2.0950 cx         1 2ID      -0.070400
     16 CAY          3.4980     3.2940    -2.9350 cx         1 2ID      -0.272700
     17 CAX          2.2850     3.9470    -2.2400 c3         1 2ID       0.069000
     18 N9           1.9010     5.1790    -2.9320 na         1 2ID      -0.182000
     19 C8           1.5030     5.2840    -4.2320 cc         1 2ID       0.457700
     20 N7           1.2310     6.5240    -4.5160 nd         1 2ID      -0.665100
     21 C5           1.4370     7.2930    -3.4190 ca         1 2ID      -0.208200
     22 C4           1.8700     6.4390    -2.3910 ca         1 2ID       0.454800
     23 N3           2.1390     6.9530    -1.1950 nb         1 2ID      -0.711000
     24 C2           2.0100     8.2450    -0.9750 ca         1 2ID       0.807800
     25 I2           2.4510     8.9930     0.9310 i          1 2ID      -0.278800
     26 N1           1.6120     9.0870    -1.9120 nb         1 2ID      -0.840000
     27 C6           1.3130     8.6640    -3.1360 ca         1 2ID       0.749200
     28 N6           0.8920     9.5530    -4.1090 nu         1 2ID      -0.923900
     29 CAA          0.7680    10.9780    -3.7960 c3         1 2ID       0.241100
     30 H3           1.3850     0.7340    -2.6010 h1         1 2ID       0.113700
     31 H4           0.7100     2.9160    -3.3410 hc         1 2ID       0.042700
     32 H5           0.4220     3.0260    -1.5800 hc         1 2ID       0.042700
     33 H6           4.6260     0.9510    -4.3300 h1         1 2ID      -0.011800
     34 H7           2.9790     1.1970    -4.9270 h1         1 2ID      -0.011800
     35 H10          4.2800     2.4710    -1.0230 hc         1 2ID       0.074200
     36 H11          5.4110     2.2460    -2.5050 hc         1 2ID       0.074200
     37 H12          3.8280     3.6280    -3.9110 hc         1 2ID       0.055700
     38 H13          2.5090     4.1440    -1.1990 h1         1 2ID       0.108700
     39 H14          1.4240     4.4560    -4.9260 h5         1 2ID       0.099800
     40 H15          0.6720     9.2220    -5.0280 hn         1 2ID       0.452800
     41 H16          0.4280    11.5130    -4.6740 h1         1 2ID       0.020700
     42 H17          1.7320    11.3650    -3.4880 h1         1 2ID       0.020700
     43 H18          0.0530    11.1100    -2.9930 h1         1 2ID       0.020700
@<TRIPOS>BOND
     1    14    11 1
     2    12    11 1
     3    13    11 1
     4    11    10 1
     5    10     9 1
     6     9     8 1
     7    20    19 2
     8    20    21 1
     9    19    18 1
    10    28    29 1
    11    28    27 1
    12     8     6 1
    13     8    16 1
    14     8    15 1
    15     4     2 1
    16    21    27 ar
    17    21    22 ar
    18     3     2 1
    19     6     5 1
    20     6     7 1
    21    27    26 ar
    22    16    15 1
    23    16    17 1
    24    18    22 1
    25    18    17 1
    26     2     5 1
    27     2     1 1
    28    22    23 ar
    29    17     7 1
    30    26    24 ar
    31    23    24 ar
    32    24    25 1
    33     6    30 1
    34     7    31 1
    35     7    32 1
    36     9    33 1
    37     9    34 1
    38    15    35 1
    39    15    36 1
    40    16    37 1
    41    17    38 1
    42    19    39 1
    43    28    40 1
    44    29    41 1
    45    29    42 1
    46    29    43 1
@<TRIPOS>SUBSTRUCTURE
     1 2ID         1 TEMP              0 ****  ****    0 ROOT
