@<TRIPOS>MOLECULE
2IG
   53    56     1     0     0
SMALL
bcc


@<TRIPOS>ATOM
      1 C1           0.0000     0.0000     0.0000 ca         1 2IG       0.546200
      2 N1           1.3280     0.0000     0.0000 nb         1 2IG      -0.650000
      3 C2           2.0050     0.0000     1.1390 ca         1 2IG       0.716900
      4 N2           1.3980     0.0010     2.3170 nb         1 2IG      -0.628000
      5 C3           0.0770     0.0010     2.4030 ca         1 2IG       0.434600
      6 C4          -0.6790    -0.0040     1.2340 cp         1 2IG      -0.285600
      7 N3          -0.7040    -0.0010    -1.1910 nv         1 2IG      -0.641500
      8 N4           3.3880    -0.0010     1.0970 nv         1 2IG      -0.640500
      9 C5          -0.5990     0.0030     3.7500 c3         1 2IG      -0.094700
     10 C6          -0.8280     1.4460     4.2040 c3         1 2IG       0.013900
     11 C7          -2.8390    -1.1050     1.8180 ca         1 2IG      -0.135000
     12 C8          -4.2030    -1.1130     1.8700 ca         1 2IG      -0.035000
     13 C9          -4.9280    -0.0220     1.3910 cp         1 2IG      -0.085000
     14 C10         -4.2600     1.0900     0.8540 ca         1 2IG      -0.156200
     15 C11         -2.8710     1.0930     0.8100 ca         1 2IG      -0.109000
     16 C12         -2.1610    -0.0040     1.2860 cp         1 2IG       0.013000
     17 N5          -5.2060     2.0190     0.4600 na         1 2IG       0.371700
     18 C13         -4.9020     3.3170    -0.1500 c3         1 2IG      -0.031700
     19 C14         -4.8430     3.1640    -1.6710 c3         1 2IG      -0.063400
     20 C15         -4.5260     4.5180    -2.3070 c3         1 2IG       0.203400
     21 O1          -4.4700     4.3760    -3.7280 os         1 2IG      -0.398600
     22 C16         -4.1720     5.6680    -4.2610 c3         1 2IG       0.241700
     23 C17         -7.7420     2.0920     0.5150 ca         1 2IG      -0.123000
     24 C18         -6.4790     1.5470     0.7220 ca         1 2IG      -0.156200
     25 C19         -6.3680     0.2750     1.3050 cp         1 2IG      -0.086000
     26 C20         -7.5150    -0.4280     1.6700 ca         1 2IG      -0.036000
     27 C21         -8.7570     0.1310     1.4560 ca         1 2IG      -0.138000
     28 C22         -8.8680     1.3860     0.8810 ca         1 2IG      -0.070000
     29 HN31        -0.7850     0.8420    -1.7250 hn         1 2IG       0.280300
     30 HN32        -1.0860    -0.8550    -1.5460 hn         1 2IG       0.280300
     31 HN41         3.8870     0.8650     1.0400 hn         1 2IG       0.278800
     32 HN42         3.8880    -0.8680     1.1080 hn         1 2IG       0.278800
     33 H51          0.0290    -0.5070     4.4700 hc         1 2IG       0.034200
     34 H52         -1.5520    -0.5080     3.6760 hc         1 2IG       0.034200
     35 H61         -0.6020     2.1220     3.3890 hc         1 2IG       0.004033
     36 H62         -0.1820     1.6660     5.0460 hc         1 2IG       0.004033
     37 H63         -1.8630     1.5710     4.5010 hc         1 2IG       0.004033
     38 H8          -4.7240    -1.9690     2.2830 ha         1 2IG       0.103000
     39 H11         -2.3410     1.9770     0.4770 ha         1 2IG       0.109000
     40 H131        -5.6760     4.0280     0.1120 h1         1 2IG       0.031700
     41 H132        -3.9460     3.6720     0.2150 h1         1 2IG       0.031700
     42 H141        -5.7990     2.8080    -2.0350 hc         1 2IG       0.035200
     43 H142        -4.0690     2.4520    -1.9320 hc         1 2IG       0.035200
     44 H151        -3.5700     4.8730    -1.9420 h1         1 2IG      -0.006800
     45 H152        -5.2990     5.2300    -2.0460 h1         1 2IG      -0.006800
     46 H161        -4.1240     5.6110    -5.3410 h1         1 2IG      -0.010967
     47 H162        -3.2190     6.0070    -3.8740 h1         1 2IG      -0.010967
     48 H163        -4.9480     6.3660    -3.9700 h1         1 2IG      -0.010967
     49 H17         -7.8400     3.0730     0.0660 ha         1 2IG       0.103000
     50 H20         -7.4310    -1.4100     2.1200 ha         1 2IG       0.102000
     51 H21         -9.6500    -0.4140     1.7390 ha         1 2IG       0.105000
     52 H22         -9.8490     1.8170     0.7170 ha         1 2IG       0.101000
     53 H7          -2.2800    -1.9640     2.1710 ha         1 2IG       0.113000
@<TRIPOS>BOND
     1     1     2 ar  
     2     1     6 ar  
     3     1     7 1   
     4     2     3 ar  
     5     3     4 ar  
     6     3     8 1   
     7     4     5 ar  
     8     5     6 ar  
     9     5     9 1   
    10     6    16 1   
    11     7    29 1   
    12     7    30 1   
    13     8    31 1   
    14     8    32 1   
    15     9    10 1   
    16     9    33 1   
    17     9    34 1   
    18    10    35 1   
    19    10    36 1   
    20    10    37 1   
    21    11    12 ar  
    22    11    16 ar  
    23    11    53 1   
    24    12    13 ar  
    25    12    38 1   
    26    13    14 ar  
    27    13    25 1   
    28    14    15 ar  
    29    14    17 1   
    30    15    16 ar  
    31    15    39 1   
    32    17    18 1   
    33    17    24 1   
    34    18    19 1   
    35    18    40 1   
    36    18    41 1   
    37    19    20 1   
    38    19    42 1   
    39    19    43 1   
    40    20    21 1   
    41    20    44 1   
    42    20    45 1   
    43    21    22 1   
    44    22    46 1   
    45    22    47 1   
    46    22    48 1   
    47    23    24 ar  
    48    23    28 ar  
    49    23    49 1   
    50    24    25 ar  
    51    25    26 ar  
    52    26    27 ar  
    53    26    50 1   
    54    27    28 ar  
    55    27    51 1   
    56    28    52 1   
@<TRIPOS>SUBSTRUCTURE
     1 2IG         1 TEMP              0 ****  ****    0 ROOT
