@<TRIPOS>MOLECULE
molecule
   34    35     1     0     0
SMALL
bcc


@<TRIPOS>ATOM
      1 C1           0.0000     0.0000     0.0000 cc         1 2IH      -0.279600
      2 C5           1.3470     0.0000     0.0000 cd         1 2IH       0.310200
      3 N4           1.7610     0.0000     1.2760 nd         1 2IH      -0.697000
      4 C3           0.7230     0.0060     2.0650 cc         1 2IH       0.392900
      5 N2          -0.3960    -0.0010     1.3090 na         1 2IH      -0.189900
      6 C6          -1.7770    -0.0010     1.8000 c3         1 2IH       0.042300
      7 C7          -2.2580    -1.4440     1.9700 c3         1 2IH      -0.103400
      8 C8          -3.7000    -1.4440     2.4820 c3         1 2IH      -0.080400
      9 C9          -4.1790    -2.8870     2.6520 c3         1 2IH      -0.080400
     10 C10         -5.6210    -2.8870     3.1650 c3         1 2IH      -0.103400
     11 C11         -6.1020    -4.3300     3.3350 c3         1 2IH       0.042300
     12 N12         -7.4820    -4.3310     3.8250 na         1 2IH      -0.189900
     13 C16         -7.8730    -4.3380     5.1180 cc         1 2IH       0.392900
     14 C13         -8.6160    -4.3310     3.0600 cc         1 2IH      -0.279600
     15 C14         -9.6610    -4.3310     3.9100 cd         1 2IH       0.310200
     16 N15         -9.1770    -4.3320     5.1610 nd         1 2IH      -0.697000
     17 H1          -0.6460    -0.0020    -0.8700 h4         1 2IH       0.171000
     18 H5           1.9840    -0.0020    -0.8760 h4         1 2IH       0.040600
     19 H3           0.7530     0.0070     3.1480 h5         1 2IH       0.062100
     20 H6C1        -2.4130     0.5100     1.0870 h1         1 2IH       0.062200
     21 H6C2        -1.8210     0.5090     2.7540 h1         1 2IH       0.062200
     22 H7C1        -1.6210    -1.9550     2.6820 hc         1 2IH       0.056200
     23 H7C2        -2.2130    -1.9550     1.0160 hc         1 2IH       0.056200
     24 H8C1        -3.7440    -0.9340     3.4370 hc         1 2IH       0.045700
     25 H8C2        -4.3360    -0.9330     1.7700 hc         1 2IH       0.045700
     26 H9C1        -3.5430    -3.3980     3.3650 hc         1 2IH       0.045700
     27 H9C2        -4.1350    -3.3980     1.6980 hc         1 2IH       0.045700
     28 H101        -6.2570    -2.3760     2.4520 hc         1 2IH       0.056200
     29 H102        -5.6650    -2.3770     4.1190 hc         1 2IH       0.056200
     30 H111        -5.4650    -4.8410     4.0470 h1         1 2IH       0.062200
     31 H112        -6.0580    -4.8410     2.3800 h1         1 2IH       0.062200
     32 H16         -7.2140    -4.3400     5.9770 h5         1 2IH       0.062100
     33 H13         -8.6640    -4.3300     1.9770 h4         1 2IH       0.171000
     34 H14        -10.7080    -4.3290     3.6320 h4         1 2IH       0.040600
@<TRIPOS>BOND
     1     1     2 2
     2     1     5 1
     3     1    17 1
     4     2     3 1
     5     2    18 1
     6     3     4 2
     7     4     5 1
     8     4    19 1
     9     5     6 1
    10     6     7 1
    11     6    20 1
    12     6    21 1
    13     7     8 1
    14     7    22 1
    15     7    23 1
    16     8     9 1
    17     8    24 1
    18     8    25 1
    19     9    10 1
    20     9    26 1
    21     9    27 1
    22    10    11 1
    23    10    28 1
    24    10    29 1
    25    11    12 1
    26    11    30 1
    27    11    31 1
    28    12    13 1
    29    12    14 1
    30    13    16 2
    31    13    32 1
    32    14    15 2
    33    14    33 1
    34    15    16 1
    35    15    34 1
@<TRIPOS>SUBSTRUCTURE
     1 2IH         1 TEMP              0 ****  ****    0 ROOT
