@<TRIPOS>MOLECULE
2IH
   34    35     1     0     0
SMALL
bcc


@<TRIPOS>ATOM
      1 C1          0.0210   -0.0160   -0.0470 cc        1 2IH     -0.257600
      2 C5          1.4260    0.0410   -0.0320 cd        1 2IH      0.290200
      3 N4          1.8890    0.1030    1.2820 nd        1 2IH     -0.666000
      4 C3          0.7890    0.0820    2.0620 cc        1 2IH      0.386400
      5 N2         -0.3840    0.0230    1.2910 na        1 2IH     -0.208900
      6 C6         -1.7280   -0.0690    1.7780 c3        1 2IH      0.040300
      7 C7         -2.2480   -1.4980    1.9550 c3        1 2IH     -0.103400
      8 C8         -3.6720   -1.4650    2.4650 c3        1 2IH     -0.078400
      9 C9         -4.2110   -2.8670    2.6550 c3        1 2IH     -0.078400
     10 C10        -5.6380   -2.8340    3.1600 c3        1 2IH     -0.103400
     11 C11        -6.1540   -4.2630    3.3490 c3        1 2IH      0.040300
     12 N12        -7.5030   -4.3550    3.8190 na        1 2IH     -0.208900
     13 C16        -7.9260   -4.4150    5.1580 cc        1 2IH      0.386400
     14 C13        -8.6620   -4.3140    3.0370 cc        1 2IH     -0.257600
     15 C14        -9.7430   -4.3720    3.9360 cd        1 2IH      0.290200
     16 N15        -9.2720   -4.4350    5.2470 nd        1 2IH     -0.666000
     17 H1         -0.6880   -0.0680   -0.8700 h4        1 2IH      0.175000
     18 H5          2.1120    0.0440   -0.8780 h4        1 2IH      0.042100
     19 H3          0.7750    0.1230    3.1550 h5        1 2IH      0.059100
     20 H6C1       -1.7760    0.4620    2.7720 h1        1 2IH      0.060700
     21 H6C2       -2.4020    0.4760    1.0560 h1        1 2IH      0.060700
     22 H7C1       -2.2060   -2.0450    0.9780 hc        1 2IH      0.055700
     23 H7C2       -1.5980   -2.0570    2.6790 hc        1 2IH      0.055700
     24 H8C1       -3.7140   -0.9100    3.4390 hc        1 2IH      0.044700
     25 H8C2       -4.3220   -0.9080    1.7380 hc        1 2IH      0.044700
     26 H9C1       -3.5640   -3.4220    3.3850 hc        1 2IH      0.044700
     27 H9C2       -4.1660   -3.4230    1.6810 hc        1 2IH      0.044700
     28 H101       -5.6850   -2.2760    4.1310 hc        1 2IH      0.055700
     29 H102       -6.2870   -2.2850    2.4280 hc        1 2IH      0.055700
     30 H111       -5.4890   -4.7950    4.0890 h1        1 2IH      0.060700
     31 H112       -6.0860   -4.8070    2.3630 h1        1 2IH      0.060700
     32 H16        -7.2250   -4.4560    5.9970 h5        1 2IH      0.059100
     33 H13        -8.6310   -4.2620    1.9520 h4        1 2IH      0.175000
     34 H14       -10.8080   -4.3750    3.7130 h4        1 2IH      0.042100
@<TRIPOS>BOND
     1    1    2 2   
     2    1    5 1   
     3    1   17 1   
     4    2    3 1   
     5    2   18 1   
     6    3    4 2   
     7    4    5 1   
     8    4   19 1   
     9    5    6 1   
    10    6    7 1   
    11    6   20 1   
    12    6   21 1   
    13    7    8 1   
    14    7   22 1   
    15    7   23 1   
    16    8    9 1   
    17    8   24 1   
    18    8   25 1   
    19    9   10 1   
    20    9   26 1   
    21    9   27 1   
    22   10   11 1   
    23   10   28 1   
    24   10   29 1   
    25   11   12 1   
    26   11   30 1   
    27   11   31 1   
    28   12   13 1   
    29   12   14 1   
    30   13   16 2   
    31   13   32 1   
    32   14   15 2   
    33   14   33 1   
    34   15   16 1   
    35   15   34 1   
@<TRIPOS>SUBSTRUCTURE
     1 2IH         1 TEMP              0 ****  ****    0 ROOT
