@<TRIPOS>MOLECULE
2IK
   55    57     1     0     0
SMALL
bcc


@<TRIPOS>ATOM
      1 C1           0.0000     0.0000     0.0000 ca         1 2IK      -0.048000
      2 C2           1.3820     0.0000     0.0000 ca         1 2IK      -0.035300
      3 C3           2.0730     0.0000     1.1980 ca         1 2IK      -0.055000
      4 C4           1.3810     0.0010     2.3940 ca         1 2IK      -0.061000
      5 C5          -0.0010     0.0020     2.3950 ca         1 2IK      -0.135000
      6 C6          -0.6910     0.0080     1.1970 ca         1 2IK      -0.202300
      7 N11          4.2850     0.7780    -3.1450 nb         1 2IK      -0.600000
      8 C12          4.9810     0.7490    -4.2720 ca         1 2IK       0.508200
      9 N12          6.1760     0.0410    -4.3260 nv         1 2IK      -0.657500
     10 C13          4.5250     1.4190    -5.4030 ca         1 2IK      -0.219300
     11 C29         -2.1980     0.0080     1.1970 c3         1 2IK       0.012800
     12 C14          3.3340     2.1190    -5.3350 ca         1 2IK      -0.045300
     13 C15          2.6360     2.1250    -4.1360 ca         1 2IK      -0.223300
     14 C16          3.1460     1.4370    -3.0520 ca         1 2IK       0.369600
     15 C19          2.1370    -0.0020    -1.3040 c3         1 2IK       0.020900
     16 N21         -4.7800     1.0030     0.2150 nb         1 2IK      -0.681000
     17 C22         -6.0960     1.0040     0.0650 ca         1 2IK       0.521200
     18 N22         -6.6550     0.5200    -1.1110 nv         1 2IK      -0.500500
     19 C23         -6.9240     1.4870     1.0740 ca         1 2IK      -0.281300
     20 C24         -6.3540     1.9660     2.2390 ca         1 2IK       0.015700
     21 C25         -4.9700     1.9480     2.3570 ca         1 2IK      -0.294300
     22 C26         -4.2100     1.4550     1.3160 ca         1 2IK       0.347600
     23 C28         -2.7080     1.4310     1.4390 c3         1 2IK      -0.066700
     24 N29         -2.6890    -0.8750     2.2630 nz         1 2IK       0.041400
     25 H221        -6.0630     0.1810    -1.8440 hn         1 2IK       0.279300
     26 H222        -7.6490     0.5190    -1.2300 hn         1 2IK       0.279300
     27 H23         -8.0000     1.4870     0.9490 ha         1 2IK       0.136000
     28 H25         -4.4920     2.3160     3.2560 ha         1 2IK       0.124000
     29 H281        -2.4210     1.7530     2.4330 hc         1 2IK       0.057700
     30 H282        -2.2750     2.1000     0.7040 hc         1 2IK       0.057700
     31 H29         -2.5600    -0.3470     0.2390 hx         1 2IK       0.104700
     32 H291        -3.2060    -0.3370     2.9300 hn         1 2IK       0.230467
     33 H292        -3.2830    -1.5770     1.8670 hn         1 2IK       0.230467
     34 H1          -0.7250    -0.3570    -0.7220 ha         1 2IK       0.116000
     35 H5          -0.5420     0.0580     3.3320 ha         1 2IK       0.089000
     36 H4           1.9230     0.0070     3.3330 ha         1 2IK       0.121000
     37 H3           3.1550    -0.0480     1.1980 ha         1 2IK       0.131000
     38 H191         3.0830    -0.5130    -1.1730 hc         1 2IK       0.037200
     39 H192         1.5510    -0.5140    -2.0590 hc         1 2IK       0.037200
     40 H15          1.7000     2.6640    -4.0500 ha         1 2IK       0.116000
     41 H121         6.1830    -0.9050    -4.6510 hn         1 2IK       0.279800
     42 H122         7.0240     0.4660    -4.0040 hn         1 2IK       0.279800
     43 H13          5.0960     1.3940    -6.3240 ha         1 2IK       0.127000
     44 H171         3.0080     2.2840    -7.4330 hc         1 2IK       0.013700
     45 H172         3.2960     3.8230    -6.6110 hc         1 2IK       0.013700
     46 H173         1.7390     3.0040    -6.4330 hc         1 2IK       0.013700
     47 C18          2.3920     1.4400    -1.7480 c3         1 2IK      -0.058700
     48 H181         2.9770     1.9510    -0.9930 hc         1 2IK       0.022700
     49 H182         1.4460     1.9500    -1.8790 hc         1 2IK       0.022700
     50 H293        -1.9120    -1.3100     2.7200 hn         1 2IK       0.230467
     51 C27         -7.2140     2.4980     3.3560 c3         1 2IK       0.055200
     52 C17          2.8070     2.8600    -6.5370 c3         1 2IK       0.061200
     53 H271        -7.1520     1.8310     4.2080 hc         1 2IK       0.020700
     54 H272        -6.8670     3.4830     3.6420 hc         1 2IK       0.020700
     55 H273        -8.2430     2.5610     3.0210 hc         1 2IK       0.020700
@<TRIPOS>BOND
     1     1     2 ar  
     2     1     6 ar  
     3     1    34 1   
     4     2     3 ar  
     5     2    15 1   
     6     3     4 ar  
     7     3    37 1   
     8     4     5 ar  
     9     4    36 1   
    10     5     6 ar  
    11     5    35 1   
    12     6    11 1   
    13     7     8 ar  
    14     7    14 ar  
    15     8     9 1   
    16     8    10 ar  
    17     9    41 1   
    18     9    42 1   
    19    10    12 ar  
    20    10    43 1   
    21    11    23 1   
    22    11    24 1   
    23    11    31 1   
    24    12    13 ar  
    25    12    52 1   
    26    13    14 ar  
    27    13    40 1   
    28    14    47 1   
    29    15    38 1   
    30    15    39 1   
    31    15    47 1   
    32    16    17 ar  
    33    16    22 ar  
    34    17    18 1   
    35    17    19 ar  
    36    18    25 1   
    37    18    26 1   
    38    19    20 ar  
    39    19    27 1   
    40    20    21 ar  
    41    20    51 1   
    42    21    22 ar  
    43    21    28 1   
    44    22    23 1   
    45    23    29 1   
    46    23    30 1   
    47    24    32 1   
    48    24    33 1   
    49    24    50 1   
    50    44    52 1   
    51    45    52 1   
    52    46    52 1   
    53    47    48 1   
    54    47    49 1   
    55    51    53 1   
    56    51    54 1   
    57    51    55 1   
@<TRIPOS>SUBSTRUCTURE
     1 2IK         1 TEMP              0 ****  ****    0 ROOT
