@<TRIPOS>MOLECULE
molecule
   79    78     1     0     0
SMALL
bcc


@<TRIPOS>ATOM
      1 C1           0.0000     0.0000     0.0000 c          1 2IL       0.889600
      2 O1           1.3430     0.0000     0.0000 o          1 2IL      -0.848300
      3 C2          -0.7520     0.0000     1.3060 c3         1 2IL      -0.206400
      4 O2          -0.6040     0.0060    -1.0460 o          1 2IL      -0.848300
      5 C3          -2.2500     0.1520     1.0310 c3         1 2IL       0.171100
      6 O3          -2.6950    -0.9240     0.1620 os         1 2IL      -0.371900
      7 C4          -2.5090     1.4970     0.3490 c3         1 2IL      -0.084400
      8 O4          -3.3290    -2.0480     1.9560 o          1 2IL      -0.593000
      9 C5          -4.0170     1.7130     0.2040 c3         1 2IL      -0.084400
     10 C6          -4.2770     3.0580    -0.4770 c3         1 2IL      -0.080400
     11 C7          -5.7850     3.2740    -0.6230 c3         1 2IL      -0.082400
     12 C8          -6.0440     4.6190    -1.3040 c3         1 2IL      -0.082400
     13 C9          -7.5520     4.8340    -1.4490 c3         1 2IL      -0.082400
     14 C10         -7.8110     6.1800    -2.1300 c3         1 2IL      -0.082400
     15 C11         -9.3190     6.3950    -2.2750 c3         1 2IL      -0.082400
     16 C12         -9.5780     7.7410    -2.9570 c3         1 2IL      -0.082400
     17 C13        -11.0860     7.9570    -3.1020 c3         1 2IL      -0.084400
     18 C14        -11.3460     9.3020    -3.7830 c3         1 2IL      -0.092100
     19 C15         -3.1860    -2.0220     0.7560 c          1 2IL       0.631100
     20 C16         -3.5600    -3.2240    -0.0720 c3         1 2IL      -0.129400
     21 C17         -4.0880    -4.3310     0.8430 c3         1 2IL      -0.071400
     22 C18         -4.4680    -5.5500     0.0000 c3         1 2IL      -0.084400
     23 C19         -4.9980    -6.6570     0.9150 c3         1 2IL      -0.080400
     24 C20         -5.3770    -7.8760     0.0730 c3         1 2IL      -0.082400
     25 C21         -5.9070    -8.9830     0.9880 c3         1 2IL      -0.082400
     26 C22         -6.2860   -10.2020     0.1460 c3         1 2IL      -0.082400
     27 C23         -6.8160   -11.3090     1.0610 c3         1 2IL      -0.082400
     28 C24         -7.1940   -12.5280     0.2190 c3         1 2IL      -0.081400
     29 C25         -7.7240   -13.6350     1.1330 c3         1 2IL      -0.084400
     30 C26         -8.1040   -14.8550     0.2910 c3         1 2IL      -0.092100
     31 H2          -0.4120     0.8260     1.9190 hc         1 2IL       0.043700
     32 H2A         -0.5730    -0.9330     1.8260 hc         1 2IL       0.043700
     33 H3          -2.7950     0.1100     1.9660 h1         1 2IL       0.035700
     34 H4          -2.0860     2.2930     0.9500 hc         1 2IL       0.075200
     35 H4A         -2.0480     1.5000    -0.6310 hc         1 2IL       0.075200
     36 H5          -4.4400     0.9170    -0.3960 hc         1 2IL       0.034700
     37 H5A         -4.4780     1.7100     1.1840 hc         1 2IL       0.034700
     38 H6          -3.8150     3.0610    -1.4570 hc         1 2IL       0.041200
     39 H6A         -3.8540     3.8550     0.1230 hc         1 2IL       0.041200
     40 H7          -6.2070     2.4780    -1.2230 hc         1 2IL       0.037200
     41 H7A         -6.2460     3.2710     0.3580 hc         1 2IL       0.037200
     42 H8          -5.5830     4.6220    -2.2840 hc         1 2IL       0.040200
     43 H8A         -5.6220     5.4160    -0.7030 hc         1 2IL       0.040200
     44 H9          -7.9740     4.0380    -2.0500 hc         1 2IL       0.038700
     45 H9A         -8.0140     4.8310    -0.4690 hc         1 2IL       0.038700
     46 H10         -7.3490     6.1840    -3.1100 hc         1 2IL       0.040200
     47 H10A        -7.3880     6.9770    -1.5290 hc         1 2IL       0.040200
     48 H11         -9.7800     6.3920    -1.2950 hc         1 2IL       0.039200
     49 H11A        -9.7410     5.5990    -2.8760 hc         1 2IL       0.039200
     50 H12         -9.1560     8.5370    -2.3560 hc         1 2IL       0.040200
     51 H12A        -9.1170     7.7440    -3.9370 hc         1 2IL       0.040200
     52 H13        -11.5480     7.9530    -2.1220 hc         1 2IL       0.038700
     53 H13A       -11.5090     7.1600    -3.7030 hc         1 2IL       0.038700
     54 H14        -10.8850     9.3050    -4.7640 hc         1 2IL       0.030367
     55 H14A       -12.4130     9.4540    -3.8860 hc         1 2IL       0.030367
     56 H14B       -10.9230    10.0980    -3.1830 hc         1 2IL       0.030367
     57 H16         -4.3270    -2.9470    -0.7850 hc         1 2IL       0.069700
     58 H16A        -2.6860    -3.5820    -0.6040 hc         1 2IL       0.069700
     59 H17         -4.9620    -3.9730     1.3740 hc         1 2IL       0.054200
     60 H17A        -3.3210    -4.6080     1.5550 hc         1 2IL       0.054200
     61 H18         -5.2360    -5.2720    -0.7120 hc         1 2IL       0.039200
     62 H18A        -3.5950    -5.9080    -0.5310 hc         1 2IL       0.039200
     63 H19         -4.2310    -6.9340     1.6280 hc         1 2IL       0.041700
     64 H19A        -5.8720    -6.2990     1.4460 hc         1 2IL       0.041700
     65 H20         -4.5030    -8.2340    -0.4580 hc         1 2IL       0.040200
     66 H20A        -6.1440    -7.5990    -0.6400 hc         1 2IL       0.040200
     67 H21         -5.1400    -9.2600     1.7010 hc         1 2IL       0.040700
     68 H21A        -6.7810    -8.6250     1.5190 hc         1 2IL       0.040700
     69 H22         -7.0530    -9.9250    -0.5670 hc         1 2IL       0.040200
     70 H22A        -5.4120   -10.5600    -0.3850 hc         1 2IL       0.040200
     71 H23         -6.0480   -11.5860     1.7740 hc         1 2IL       0.040200
     72 H23A        -7.6890   -10.9510     1.5920 hc         1 2IL       0.040200
     73 H24         -6.3200   -12.8860    -0.3120 hc         1 2IL       0.040200
     74 H24A        -7.9610   -12.2510    -0.4940 hc         1 2IL       0.040200
     75 H25         -6.9570   -13.9120     1.8460 hc         1 2IL       0.039200
     76 H25A        -8.5980   -13.2770     1.6650 hc         1 2IL       0.039200
     77 H26         -7.2300   -15.2140    -0.2400 hc         1 2IL       0.031033
     78 H26A        -8.8710   -14.5780    -0.4210 hc         1 2IL       0.031033
     79 H26B        -8.4790   -15.6390     0.9390 hc         1 2IL       0.031033
@<TRIPOS>BOND
     1     4     1 1   
     2     2     1 1   
     3     1     3 1   
     4     5     3 1   
     5     3    31 1   
     6     3    32 1   
     7     7     5 1   
     8     5     6 1   
     9     5    33 1   
    10     6    19 1   
    11     9     7 1   
    12     7    34 1   
    13     7    35 1   
    14     8    19 2   
    15    10     9 1   
    16     9    36 1   
    17     9    37 1   
    18    11    10 1   
    19    10    38 1   
    20    10    39 1   
    21    12    11 1   
    22    11    40 1   
    23    11    41 1   
    24    13    12 1   
    25    12    42 1   
    26    12    43 1   
    27    14    13 1   
    28    13    44 1   
    29    13    45 1   
    30    15    14 1   
    31    14    46 1   
    32    14    47 1   
    33    16    15 1   
    34    15    48 1   
    35    15    49 1   
    36    17    16 1   
    37    16    50 1   
    38    16    51 1   
    39    18    17 1   
    40    17    52 1   
    41    17    53 1   
    42    18    54 1   
    43    18    55 1   
    44    18    56 1   
    45    19    20 1   
    46    21    20 1   
    47    20    57 1   
    48    20    58 1   
    49    22    21 1   
    50    21    59 1   
    51    21    60 1   
    52    23    22 1   
    53    22    61 1   
    54    22    62 1   
    55    24    23 1   
    56    23    63 1   
    57    23    64 1   
    58    25    24 1   
    59    24    65 1   
    60    24    66 1   
    61    26    25 1   
    62    25    67 1   
    63    25    68 1   
    64    27    26 1   
    65    26    69 1   
    66    26    70 1   
    67    28    27 1   
    68    27    71 1   
    69    27    72 1   
    70    29    28 1   
    71    28    73 1   
    72    28    74 1   
    73    30    29 1   
    74    29    75 1   
    75    29    76 1   
    76    30    77 1   
    77    30    78 1   
    78    30    79 1   
@<TRIPOS>SUBSTRUCTURE
     1 2IL         1 TEMP              0 ****  ****    0 ROOT
