@<TRIPOS>MOLECULE
molecule
   17    17     1     0     0
SMALL
bcc


@<TRIPOS>ATOM
      1 N2           0.0000     0.0000     0.0000 n2         1 2IM      -0.863100
      2 C1           1.2930     0.0000     0.0000 c2         1 2IM       0.653200
      3 N1           2.0100     0.0000     1.1800 nu         1 2IM      -0.916200
      4 C4           3.1270     0.9430     1.3050 c3         1 2IM       0.248800
      5 C5           4.0120     0.8280     0.0610 c3         1 2IM      -0.104400
      6 C3           3.1690     1.0810    -1.1920 c3         1 2IM      -0.075400
      7 C2           2.0790     0.0080    -1.2940 c3         1 2IM      -0.178700
      8 HN2         -0.5000     0.0030    -0.8670 hn         1 2IM       0.402400
      9 HN1          1.7750    -0.6240     1.9270 hn         1 2IM       0.448800
     10 H41          2.7410     1.9520     1.3830 h1         1 2IM       0.042200
     11 H42          3.7080     0.7010     2.1860 h1         1 2IM       0.042200
     12 H51          4.4380    -0.1660     0.0130 hc         1 2IM       0.048200
     13 H52          4.8060     1.5640     0.1150 hc         1 2IM       0.048200
     14 H31          3.8040     1.0350    -2.0690 hc         1 2IM       0.045200
     15 H32          2.7080     2.0590    -1.1250 hc         1 2IM       0.045200
     16 H21          1.4170     0.2390    -2.1200 hc         1 2IM       0.056700
     17 H22          2.5370    -0.9620    -1.4470 hc         1 2IM       0.056700
@<TRIPOS>BOND
     1     1     2 2   
     2     1     8 1   
     3     2     3 1   
     4     2     7 1   
     5     3     4 1   
     6     3     9 1   
     7     4     5 1   
     8     4    10 1   
     9     4    11 1   
    10     5     6 1   
    11     5    12 1   
    12     5    13 1   
    13     6     7 1   
    14     6    14 1   
    15     6    15 1   
    16     7    16 1   
    17     7    17 1   
@<TRIPOS>SUBSTRUCTURE
     1 2IM         1 TEMP              0 ****  ****    0 ROOT
