@<TRIPOS>MOLECULE
2IN
   57    58     1     0     0
SMALL
bcc


@<TRIPOS>ATOM
      1 N4           0.0000     0.0000     0.0000 nz         1 2IN       0.122400
      2 N5           2.0290    -0.0000    -1.1270 n2         1 2IN      -0.452100
      3 C18          1.3780     0.0000     0.0000 ce         1 2IN       0.231800
      4 C14          2.1180     0.0000     1.2830 ca         1 2IN      -0.196900
      5 C13          3.5120     0.0010     1.2860 ca         1 2IN      -0.060000
      6 C12          4.1960     0.0010     2.4850 ca         1 2IN      -0.064000
      7 C17          3.5030     0.0010     3.6810 ca         1 2IN      -0.059300
      8 C16          2.1180     0.0020     3.6830 ca         1 2IN      -0.064000
      9 C15          1.4240     0.0060     2.4910 ca         1 2IN      -0.060000
     10 C11          4.2560     0.0010     4.9860 c3         1 2IN       0.102300
     11 N3           4.4990     1.3820     5.4090 ns         1 2IN      -0.204900
     12 C10          5.1610     1.6270     6.5580 c          1 2IN       0.570100
     13 O5           5.5550     0.7060     7.2390 o          1 2IN      -0.638100
     14 C8           5.4130     3.0480     6.9930 c3         1 2IN      -0.009000
     15 N2           6.1450     3.0480     8.2600 ns         1 2IN      -0.201900
     16 C7           6.4820     4.2140     8.8450 c          1 2IN       0.574100
     17 O4           6.1790     5.2640     8.3190 o          1 2IN      -0.623100
     18 C5           7.2350     4.2150    10.1490 c3         1 2IN       0.133500
     19 C6           8.5710     3.4930     9.9670 c3         1 2IN       0.206400
     20 O3           9.3440     4.1670     8.9710 oh         1 2IN      -0.583800
     21 N1           7.4790     5.5940    10.5730 n7         1 2IN      -0.567100
     22 S1           6.8790     6.1360    12.0190 s6         1 2IN       0.955900
     23 O2           7.3980     7.4570    12.1000 o          1 2IN      -0.571300
     24 O1           5.4880     5.8780    11.8990 o          1 2IN      -0.571300
     25 C1           7.6610     5.0360    13.2290 c3         1 2IN       0.052700
     26 C4           7.2060     5.4100    14.6150 ca         1 2IN      -0.095300
     27 C3           7.9210     6.3370    15.3510 ca         1 2IN      -0.086000
     28 C2           7.5010     6.6840    16.6210 ca         1 2IN      -0.092500
     29 C21          6.3720     6.0950    17.1610 ca         1 2IN      -0.090000
     30 C20          5.6610     5.1640    16.4270 ca         1 2IN      -0.092500
     31 C19          6.0790     4.8210    15.1540 ca         1 2IN      -0.086000
     32 HN41        -0.3340    -0.8160     0.4740 hn         1 2IN       0.227800
     33 HN42        -0.3340    -0.0030    -0.9440 hn         1 2IN       0.227800
     34 HN5          1.5290    -0.0000    -1.9940 hn         1 2IN       0.338400
     35 H13          4.0560     0.0010     0.3500 ha         1 2IN       0.108000
     36 H12          5.2790     0.0010     2.4890 ha         1 2IN       0.131500
     37 H16          1.5790     0.0040     4.6230 ha         1 2IN       0.131500
     38 H15          0.3400     0.0060     2.4950 ha         1 2IN       0.108000
     39 H111         5.2030    -0.5090     4.8560 h1         1 2IN       0.041200
     40 H112         3.6710    -0.5110     5.7410 h1         1 2IN       0.041200
     41 HN3          4.2020     2.1420     4.8300 hn         1 2IN       0.179500
     42 H81          4.4660     3.5590     7.1220 h1         1 2IN       0.040200
     43 H82          5.9980     3.5580     6.2380 h1         1 2IN       0.040200
     44 HN2          6.3650     2.1810     8.7100 hn         1 2IN       0.200500
     45 H5           6.6490     3.7040    10.9040 h1         1 2IN       0.044700
     46 H61          9.1130     3.4930    10.9050 h1         1 2IN      -0.008800
     47 H62          8.3900     2.4720     9.6540 h1         1 2IN      -0.008800
     48 HO3         10.2030     3.7820     8.9270 ho         1 2IN       0.397000
     49 HN1          7.9880     6.2180     9.9770 hn         1 2IN       0.377800
     50 H11          8.7380     5.1340    13.1630 h1         1 2IN       0.066200
     51 H12A         7.3790     4.0110    13.0200 h1         1 2IN       0.066200
     52 H3           8.8060     6.7980    14.9290 ha         1 2IN       0.110500
     53 H2           8.0600     7.4120    17.1970 ha         1 2IN       0.107000
     54 H21          6.0430     6.3660    18.1570 ha         1 2IN       0.106000
     55 H20          4.7760     4.7030    16.8500 ha         1 2IN       0.107000
     56 H19          5.5210     4.0910    14.5800 ha         1 2IN       0.110500
     57 H43         -0.3340     0.8160     0.4730 hn         1 2IN       0.227800
@<TRIPOS>BOND
     1     1     3 1   
     2     1    32 1   
     3     1    33 1   
     4     1    57 1   
     5     2     3 2   
     6     2    34 1   
     7     3     4 1   
     8     4     5 ar  
     9     4     9 ar  
    10     5     6 ar  
    11     5    35 1   
    12     6     7 ar  
    13     6    36 1   
    14     7     8 ar  
    15     7    10 1   
    16     8     9 ar  
    17     8    37 1   
    18     9    38 1   
    19    10    11 1   
    20    10    39 1   
    21    10    40 1   
    22    11    12 1   
    23    11    41 1   
    24    12    13 2   
    25    12    14 1   
    26    14    15 1   
    27    14    42 1   
    28    14    43 1   
    29    15    16 1   
    30    15    44 1   
    31    16    17 2   
    32    16    18 1   
    33    18    19 1   
    34    18    21 1   
    35    18    45 1   
    36    19    20 1   
    37    19    46 1   
    38    19    47 1   
    39    20    48 1   
    40    21    22 1   
    41    21    49 1   
    42    22    23 2   
    43    22    24 2   
    44    22    25 1   
    45    25    26 1   
    46    25    50 1   
    47    25    51 1   
    48    26    27 ar  
    49    26    31 ar  
    50    27    28 ar  
    51    27    52 1   
    52    28    29 ar  
    53    28    53 1   
    54    29    30 ar  
    55    29    54 1   
    56    30    31 ar  
    57    30    55 1   
    58    31    56 1   
@<TRIPOS>SUBSTRUCTURE
     1 2IN         1 TEMP              0 ****  ****    0 ROOT
