@<TRIPOS>MOLECULE
molecule
   30    30     1     0     0
SMALL
bcc


@<TRIPOS>ATOM
      1 C1           0.0000     0.0000     0.0000 c3         1 2IP       0.173600
      2 C2           1.5290     0.0000     0.0000 c3         1 2IP       0.121850
      3 C3           2.0390     0.0000     1.4410 c3         1 2IP       0.121850
      4 C4           1.5290    -1.2490     2.1630 c3         1 2IP       0.173600
      5 C5          -0.0000    -1.2480     2.1630 c3         1 2IP       0.121850
      6 C6          -0.5100    -1.2480     0.7210 c3         1 2IP       0.121850
      7 O1          -0.4760     1.1660     0.6730 os         1 2IP      -0.538200
      8 O2           2.0050    -1.1670    -0.6730 oh         1 2IP      -0.572800
      9 O3           3.4680    -0.0010     1.4420 oh         1 2IP      -0.572800
     10 O4           2.0060    -1.2490     3.5100 os         1 2IP      -0.538200
     11 O5          -0.4770    -2.4140     2.8370 oh         1 2IP      -0.572800
     12 O6          -1.9390    -1.2480     0.7210 oh         1 2IP      -0.572800
     13 P4           2.8870    -2.5840     3.6930 p5         1 2IP       1.191400
     14 O41          4.0160    -2.5630     2.7370 o          1 2IP      -0.932000
     15 O42          3.4590    -2.6490     5.1960 o          1 2IP      -0.932000
     16 O43          1.9690    -3.8750     3.4110 o          1 2IP      -0.932000
     17 P1          -1.3570     1.9920    -0.3920 p5         1 2IP       1.191400
     18 O11         -2.4870     1.1540    -0.8520 o          1 2IP      -0.932000
     19 O12         -1.9280     3.3270     0.3030 o          1 2IP      -0.932000
     20 O13         -0.4390     2.3940    -1.6510 o          1 2IP      -0.932000
     21 H1          -0.3590    -0.0040    -1.0220 h1         1 2IP       0.082200
     22 H2           1.8890     0.8870    -0.5080 h1         1 2IP       0.041450
     23 H3           1.6740     0.8830     1.9510 h1         1 2IP       0.041450
     24 H4           1.8870    -2.1330     1.6490 h1         1 2IP       0.082200
     25 H5          -0.3590    -0.3610     2.6700 h1         1 2IP       0.041450
     26 H6          -0.1450    -2.1320     0.2120 h1         1 2IP       0.041450
     27 HO2          2.4500    -0.9140    -1.4650 ho         1 2IP       0.352000
     28 HO3          3.7830     0.8750     1.5950 ho         1 2IP       0.352000
     29 HO5         -1.1290    -2.1660     3.4710 ho         1 2IP       0.352000
     30 HO6         -2.2530    -2.0470     0.3300 ho         1 2IP       0.352000
@<TRIPOS>BOND
     1     1     2 1   
     2     1     6 1   
     3     1     7 1   
     4     1    21 1   
     5     2     3 1   
     6     2     8 1   
     7     2    22 1   
     8     3     4 1   
     9     3     9 1   
    10     3    23 1   
    11     4     5 1   
    12     4    10 1   
    13     4    24 1   
    14     5     6 1   
    15     5    11 1   
    16     5    25 1   
    17     6    12 1   
    18     6    26 1   
    19     7    17 1   
    20     8    27 1   
    21     9    28 1   
    22    10    13 1   
    23    11    29 1   
    24    12    30 1   
    25    13    14 1   
    26    13    15 1   
    27    13    16 1   
    28    17    18 1   
    29    17    19 1   
    30    17    20 1   
@<TRIPOS>SUBSTRUCTURE
     1 2IP         1 TEMP              0 ****  ****    0 ROOT
