@<TRIPOS>MOLECULE
2IP
   30    30     1     0     0
SMALL
bcc


@<TRIPOS>ATOM
      1 C1         -0.0600    0.0550   -0.0710 c3        1 2IP      0.173600
      2 C2          1.4780    0.1840    0.0480 c3        1 2IP      0.119600
      3 C3          2.0040    0.0640    1.4860 c3        1 2IP      0.119600
      4 C4          1.5280   -1.2320    2.1740 c3        1 2IP      0.173600
      5 C5         -0.0150   -1.2700    2.1690 c3        1 2IP      0.119600
      6 C6         -0.5660   -1.1750    0.7320 c3        1 2IP      0.119600
      7 O1         -0.6750    1.2270    0.3160 os        1 2IP     -0.577200
      8 O2          2.0970   -0.7700   -0.8220 oh        1 2IP     -0.669050
      9 O3          3.4260    0.1190    1.4350 oh        1 2IP     -0.669050
     10 O4          2.0150   -1.2920    3.4700 os        1 2IP     -0.577200
     11 O5         -0.4710   -2.4830    2.7610 oh        1 2IP     -0.669050
     12 O6         -1.9810   -1.2260    0.7570 oh        1 2IP     -0.669050
     13 P4          3.0540   -2.6120    3.8100 p5        1 2IP      1.322400
     14 O41         4.1400   -2.3960    2.7800 o         1 2IP     -0.939667
     15 O42         3.4860   -2.4170    5.2400 o         1 2IP     -0.939667
     16 O43         2.1480   -3.7930    3.5630 o         1 2IP     -0.939667
     17 P1         -1.7340    1.9870   -0.8150 p5        1 2IP      1.322400
     18 O11        -2.9850    1.1580   -0.6280 o         1 2IP     -0.939667
     19 O12        -1.8300    3.4100   -0.3230 o         1 2IP     -0.939667
     20 O13        -1.0760    1.8310   -2.1620 o         1 2IP     -0.939667
     21 H1         -0.2920   -0.1450   -1.1640 h1        1 2IP      0.035700
     22 H2          1.7760    1.1900   -0.3620 h1        1 2IP      0.035700
     23 H3          1.6490    0.9540    2.0730 h1        1 2IP      0.035700
     24 H4          1.9110   -2.1210    1.5850 h1        1 2IP      0.035700
     25 H5         -0.4280   -0.4250    2.7830 h1        1 2IP      0.035700
     26 H6         -0.2360   -2.1040    0.1810 h1        1 2IP      0.035700
     27 HO2         2.6000   -1.3740   -0.2630 ho        1 2IP      0.445750
     28 HO3         3.7640   -0.6380    1.9660 ho        1 2IP      0.445750
     29 HO5         0.3170   -2.9400    3.1230 ho        1 2IP      0.445750
     30 HO6        -2.3150   -0.3400    0.4880 ho        1 2IP      0.445750
@<TRIPOS>BOND
     1    1    2 1   
     2    1    6 1   
     3    1    7 1   
     4    1   21 1   
     5    2    3 1   
     6    2    8 1   
     7    2   22 1   
     8    3    4 1   
     9    3    9 1   
    10    3   23 1   
    11    4    5 1   
    12    4   10 1   
    13    4   24 1   
    14    5    6 1   
    15    5   11 1   
    16    5   25 1   
    17    6   12 1   
    18    6   26 1   
    19    7   17 1   
    20    8   27 1   
    21    9   28 1   
    22   10   13 1   
    23   11   29 1   
    24   12   30 1   
    25   13   14 1   
    26   13   15 1   
    27   13   16 1   
    28   17   18 1   
    29   17   19 1   
    30   17   20 1   
@<TRIPOS>SUBSTRUCTURE
     1 2IP         1 TEMP              0 ****  ****    0 ROOT
