@<TRIPOS>MOLECULE
molecule
   15    14     1     0     0
SMALL
bcc


@<TRIPOS>ATOM
      1 OAC          0.0000     0.0000     0.0000 o          1 2IT      -0.847800
      2 CAJ          1.3470     0.0000     0.0000 c          1 2IT       0.803300
      3 OAE          1.9530     0.0000     1.0520 o          1 2IT      -0.847800
      4 CAI          2.0880    -0.0000    -1.2840 ce         1 2IT       0.394300
      5 NAA          1.4470    -0.0000    -2.3930 n2         1 2IT      -0.822100
      6 CAG          3.5940     0.0000    -1.2830 c3         1 2IT      -0.158700
      7 CAF          4.1050    -0.0000    -2.7260 c3         1 2IT      -0.193400
      8 CAH          5.6110    -0.0000    -2.7260 c          1 2IT       0.893600
      9 OAB          6.2830    -0.0000    -3.8880 o          1 2IT      -0.874300
     10 OAD          6.2150     0.0000    -1.6790 o          1 2IT      -0.874300
     11 H3           1.9470    -0.0000    -3.2600 hn         1 2IT       0.352400
     12 H6           3.9550    -0.8850    -0.7720 hc         1 2IT       0.062700
     13 H7           3.9550     0.8850    -0.7720 hc         1 2IT       0.062700
     14 H8           3.7440     0.8850    -3.2370 hc         1 2IT       0.024700
     15 H9           3.7440    -0.8850    -3.2370 hc         1 2IT       0.024700
@<TRIPOS>BOND
     1     5     4 2   
     2     4     6 1   
     3     4     2 1   
     4     7     6 1   
     5     7     8 1   
     6     3     2 1   
     7     2     1 1   
     8     8    10 1   
     9     8     9 1   
    10     5    11 1   
    11     6    12 1   
    12     6    13 1   
    13     7    14 1   
    14     7    15 1   
@<TRIPOS>SUBSTRUCTURE
     1 2IT         1 TEMP              0 ****  ****    0 ROOT
