@<TRIPOS>MOLECULE
2IW
   53    58     1     0     0
SMALL
bcc


@<TRIPOS>ATOM
      1 C1           0.0000     0.0000     0.0000 c3         1 2IW      -0.136700
      2 N1          -1.0090    -1.9610    -0.7500 n          1 2IW       0.009400
      3 O1          -0.3840    -0.4770    -2.3440 o          1 2IW      -0.611500
      4 C2           1.5610     0.0000     0.0000 c3         1 2IW      -0.006500
      5 N2          -7.0810    -6.3410    -4.9420 nb         1 2IW      -0.593000
      6 O2          -1.4330    -3.0730     1.1770 o          1 2IW      -0.611500
      7 C3          -0.3640    -0.8990     1.2200 c3         1 2IW      -0.136700
      8 N3          -4.4090    -6.2680    -4.0940 ns         1 2IW      -0.009100
      9 O3          -2.4470    -6.3090    -5.1360 o          1 2IW      -0.640100
     10 C4          -0.4740    -0.8130    -1.1830 c          1 2IW       0.626000
     11 C5          -0.9990    -2.1120     0.5790 c          1 2IW       0.626000
     12 C6           1.0270    -1.3190     1.7910 c3         1 2IW      -0.006500
     13 C7           1.9360    -1.4480    -0.3350 c2         1 2IW      -0.162200
     14 C8           1.8470     0.0000     1.5460 c3         1 2IW      -0.028400
     15 C9           1.6290    -2.2080     0.6960 c2         1 2IW      -0.162200
     16 C10         -4.8970    -7.3140    -4.8790 ca         1 2IW      -0.138700
     17 C11         -3.1370    -5.8490    -4.2460 c          1 2IW       0.579700
     18 C12         -8.8630    -7.3680    -6.1040 ca         1 2IW      -0.229300
     19 C13         -8.0640    -8.4040    -6.4970 ca         1 2IW      -0.038300
     20 C14         -6.7160    -8.3970    -6.0880 ca         1 2IW      -0.129300
     21 C15         -6.2480    -7.3230    -5.2910 ca         1 2IW       0.362600
     22 C16         -8.3360    -6.3440    -5.3200 ca         1 2IW       0.417200
     23 C17         -5.8370    -9.4300    -6.4530 ca         1 2IW      -0.108000
     24 C18         -4.5400    -9.3930    -6.0410 ca         1 2IW      -0.073000
     25 C19         -4.0650    -8.3450    -5.2580 ca         1 2IW      -0.100000
     26 C20         -8.6090    -9.5250    -7.3440 c3         1 2IW       0.058200
     27 C21         -1.2620    -4.3960    -3.4870 ca         1 2IW      -0.050500
     28 C22         -0.7460    -3.4470    -2.6330 ca         1 2IW      -0.089000
     29 C23         -1.5360    -2.9230    -1.6160 ca         1 2IW      -0.085400
     30 C24         -2.8490    -3.3540    -1.4580 ca         1 2IW      -0.089000
     31 C25         -3.3710    -4.3030    -2.3090 ca         1 2IW      -0.050500
     32 C26         -2.5810    -4.8320    -3.3330 ca         1 2IW      -0.150600
     33 H1          -0.4360     0.9910     0.0500 hc         1 2IW       0.070200
     34 H2           2.0490     0.7750    -0.5780 hc         1 2IW       0.062200
     35 H3          -1.0010    -0.4050     1.9430 hc         1 2IW       0.070200
     36 HN3         -4.9910    -5.8540    -3.3940 hn         1 2IW       0.185500
     37 H6           1.0420    -1.7120     2.8000 hc         1 2IW       0.062200
     38 H7           2.8270    -1.6570    -0.9150 ha         1 2IW       0.136500
     39 H8           1.4070     0.8550     2.0450 hc         1 2IW       0.031200
     40 H8A          2.9000    -0.1240     1.7680 hc         1 2IW       0.031200
     41 H9           1.2410    -3.2070     0.5360 ha         1 2IW       0.136500
     42 H12         -9.9050    -7.3440    -6.4010 ha         1 2IW       0.116000
     43 H16         -8.9810    -5.5290    -5.0160 h4         1 2IW      -0.023900
     44 H17         -6.1900   -10.2530    -7.0620 ha         1 2IW       0.112000
     45 H18         -3.8670   -10.1930    -6.3260 ha         1 2IW       0.104000
     46 H19         -3.0290    -8.3390    -4.9430 ha         1 2IW       0.140000
     47 H20         -9.6580    -9.3450    -7.5490 hc         1 2IW       0.013700
     48 H20A        -8.0610    -9.5720    -8.2770 hc         1 2IW       0.013700
     49 H20B        -8.5010   -10.4640    -6.8140 hc         1 2IW       0.013700
     50 H21         -0.6460    -4.8040    -4.2800 ha         1 2IW       0.120000
     51 H22          0.2760    -3.1090    -2.7530 ha         1 2IW       0.120000
     52 H24         -3.4620    -2.9430    -0.6650 ha         1 2IW       0.120000
     53 H25         -4.3940    -4.6380    -2.1860 ha         1 2IW       0.120000
@<TRIPOS>BOND
     1     1     4 1   
     2     1     7 1   
     3     1    10 1   
     4     1    33 1   
     5     2    10 1   
     6     2    11 1   
     7     2    29 1   
     8     3    10 2   
     9     4    13 1   
    10     4    14 1   
    11     4    34 1   
    12     5    21 ar  
    13     5    22 ar  
    14     6    11 2   
    15     7    11 1   
    16     7    12 1   
    17     7    35 1   
    18     8    16 1   
    19     8    17 1   
    20     8    36 1   
    21     9    17 2   
    22    12    14 1   
    23    12    15 1   
    24    12    37 1   
    25    13    15 2   
    26    13    38 1   
    27    14    39 1   
    28    14    40 1   
    29    15    41 1   
    30    16    21 ar  
    31    16    25 ar  
    32    17    32 1   
    33    18    19 ar  
    34    18    22 ar  
    35    18    42 1   
    36    19    20 ar  
    37    19    26 1   
    38    20    21 ar  
    39    20    23 ar  
    40    22    43 1   
    41    23    24 ar  
    42    23    44 1   
    43    24    25 ar  
    44    24    45 1   
    45    25    46 1   
    46    26    47 1   
    47    26    48 1   
    48    26    49 1   
    49    27    28 ar  
    50    27    32 ar  
    51    27    50 1   
    52    28    29 ar  
    53    28    51 1   
    54    29    30 ar  
    55    30    31 ar  
    56    30    52 1   
    57    31    32 ar  
    58    31    53 1   
@<TRIPOS>SUBSTRUCTURE
     1 2IW         1 TEMP              0 ****  ****    0 ROOT
