@<TRIPOS>MOLECULE
molecule
   28    30     1     0     0
SMALL
bcc


@<TRIPOS>ATOM
      1 Cl           0.0000     0.0000     0.0000 cl         1 2J1      -0.097400
      2 C1           1.7360     0.0000     0.0000 ca         1 2J1       0.042400
      3 C2           2.4140     0.0000     1.1830 ca         1 2J1      -0.124000
      4 C3           3.8130    -0.0010     1.1880 ca         1 2J1      -0.101800
      5 C6           4.8230    -0.0040     2.2380 cc         1 2J1      -0.155400
      6 C7           4.6080    -0.0130     3.7290 c3         1 2J1       0.003800
      7 C8           5.9220    -0.4250     4.4050 c3         1 2J1      -0.080400
      8 C9           7.0700     0.4160     3.8390 c3         1 2J1      -0.072400
      9 C10          7.3420     0.0000     2.3890 c3         1 2J1      -0.009200
     10 C5           6.0310     0.0010     1.6360 cd         1 2J1      -0.082300
     11 N            5.8680     0.0040     0.2830 na         1 2J1      -0.178400
     12 C4           4.5250     0.0020    -0.0300 ca         1 2J1      -0.055200
     13 C11          3.8280     0.0020    -1.2280 ca         1 2J1      -0.109000
     14 C12          2.4350    -0.0050    -1.2180 ca         1 2J1      -0.079600
     15 C13          1.6910    -0.0060    -2.4900 c          1 2J1       0.879200
     16 O2           2.3580     0.0000    -3.6610 o          1 2J1      -0.827800
     17 O1           0.4750    -0.0120    -2.4840 o          1 2J1      -0.827800
     18 H1           1.8690     0.0030     2.1190 ha         1 2J1       0.120000
     19 H2           3.8310    -0.7250     3.9800 hc         1 2J1       0.043200
     20 H3           4.3230     0.9780     4.0610 hc         1 2J1       0.043200
     21 H4           5.8450    -0.2570     5.4730 hc         1 2J1       0.035700
     22 H5           6.1130    -1.4730     4.2120 hc         1 2J1       0.035700
     23 H6           6.7960     1.4640     3.8680 hc         1 2J1       0.037700
     24 H7           7.9610     0.2530     4.4330 hc         1 2J1       0.037700
     25 H8           7.7710    -0.9940     2.3710 hc         1 2J1       0.040700
     26 H9           8.0240     0.7060     1.9310 hc         1 2J1       0.040700
     27 H10          6.6130     0.0070    -0.3850 hn         1 2J1       0.284700
     28 H11          4.3650    -0.0020    -2.1690 ha         1 2J1       0.157000
@<TRIPOS>BOND
     1    17    15 1   
     2    15    16 1   
     3    15    14 1   
     4    13    14 ar  
     5    13    12 ar  
     6    14     2 ar  
     7    12    11 1   
     8    12     4 ar  
     9    11    10 1   
    10     2     1 1   
    11     2     3 ar  
    12    10     9 1   
    13    10     5 2   
    14     4     3 ar  
    15     4     5 1   
    16     9     8 1   
    17     5     6 1   
    18     8     7 1   
    19     6     7 1   
    20     3    18 1   
    21     6    19 1   
    22     6    20 1   
    23     7    21 1   
    24     7    22 1   
    25     8    23 1   
    26     8    24 1   
    27     9    25 1   
    28     9    26 1   
    29    11    27 1   
    30    13    28 1   
@<TRIPOS>SUBSTRUCTURE
     1 2J1         1 TEMP              0 ****  ****    0 ROOT
