@<TRIPOS>MOLECULE
2J1
   28    30     1     0     0
SMALL
bcc


@<TRIPOS>ATOM
      1 CL          0.0510    0.4540   -0.0170 cl        1 2J1     -0.118400
      2 C1          1.7440    0.2250   -0.0210 ca        1 2J1      0.024400
      3 C2          2.3990    0.2310    1.2080 ca        1 2J1     -0.111000
      4 C3          3.7800    0.0530    1.2270 ca        1 2J1     -0.103800
      5 C6          4.7830    0.0210    2.2700 cc        1 2J1     -0.123400
      6 C7          4.6230    0.1790    3.7220 c3        1 2J1     -0.001200
      7 C8          5.8760   -0.2720    4.4580 c3        1 2J1     -0.074400
      8 C9          7.1430    0.2370    3.7970 c3        1 2J1     -0.068400
      9 C10         7.3040   -0.2900    2.3790 c3        1 2J1     -0.008200
     10 C5          6.0190   -0.1860    1.6540 cd        1 2J1     -0.106300
     11 N           5.8500   -0.3700    0.2680 na        1 2J1     -0.178400
     12 C4          4.4870   -0.1480   -0.0170 ca        1 2J1     -0.052200
     13 C11         3.8060   -0.1520   -1.2400 ca        1 2J1     -0.135000
     14 C12         2.4270    0.0400   -1.2420 ca        1 2J1     -0.068600
     15 C13         1.7100    0.0490   -2.5960 c         1 2J1      0.917200
     16 O2          1.6620    1.1470   -3.2140 o         1 2J1     -0.814300
     17 O1          1.2530   -1.0450   -3.0190 o         1 2J1     -0.814300
     18 H1          1.8480    0.3710    2.1480 ha        1 2J1      0.125000
     19 H2          4.4150    1.2590    3.9580 hc        1 2J1      0.042700
     20 H3          3.7400   -0.4130    4.0820 hc        1 2J1      0.042700
     21 H4          5.8360    0.0950    5.5170 hc        1 2J1      0.033200
     22 H5          5.9020   -1.3930    4.4890 hc        1 2J1      0.033200
     23 H6          8.0330   -0.0720    4.4050 hc        1 2J1      0.034200
     24 H7          7.1200    1.3580    3.7730 hc        1 2J1      0.034200
     25 H8          8.1100    0.2880    1.8530 hc        1 2J1      0.039700
     26 H9          7.6290   -1.3660    2.4090 hc        1 2J1      0.039700
     27 H10         6.5630   -0.1660   -0.3830 hn        1 2J1      0.272700
     28 H11         4.3360   -0.3000   -2.1910 ha        1 2J1      0.141000
@<TRIPOS>BOND
     1    1    2 1   
     2    2    3 ar  
     3    2   14 ar  
     4    3    4 ar  
     5    3   18 1   
     6    4    5 1   
     7    4   12 ar  
     8    5    6 1   
     9    5   10 2   
    10    6    7 1   
    11    6   19 1   
    12    6   20 1   
    13    7    8 1   
    14    7   21 1   
    15    7   22 1   
    16    8    9 1   
    17    8   23 1   
    18    8   24 1   
    19    9   10 1   
    20    9   25 1   
    21    9   26 1   
    22   10   11 1   
    23   11   12 1   
    24   11   27 1   
    25   12   13 ar  
    26   13   14 ar  
    27   13   28 1   
    28   14   15 1   
    29   15   16 1   
    30   15   17 1   
@<TRIPOS>SUBSTRUCTURE
     1 2J1         1 TEMP              0 ****  ****    0 ROOT
