@<TRIPOS>MOLECULE
2J2
   28    30     1     0     0
SMALL
bcc


@<TRIPOS>ATOM
      1 C4          0.0050    0.0130    0.0080 cc        1 2J2      0.033700
      2 C5          1.4120   -0.0280    0.0120 cd        1 2J2     -0.209400
      3 C6          2.2040   -0.0470    1.2480 c3        1 2J2      0.014800
      4 C7          1.3280   -0.3660    2.4520 c3        1 2J2     -0.077400
      5 C8          0.0040    0.3740    2.4240 c3        1 2J2     -0.054400
      6 C10        -2.1080    0.8950    1.0970 c         1 2J2      0.923600
      7 O1         -2.4480    1.5800    2.0950 o         1 2J2     -0.833800
      8 O          -2.7520    0.8570    0.0050 o         1 2J2     -0.833800
      9 C9         -0.8470   -0.0060    1.2210 c3        1 2J2     -0.149500
     10 C2          1.8390    0.0060   -1.3610 ca        1 2J2     -0.061800
     11 C1          3.0780   -0.0190   -1.9980 ca        1 2J2     -0.097000
     12 N          -0.4730    0.0390   -1.3020 na        1 2J2     -0.151400
     13 C3          0.6230    0.0770   -2.1620 ca        1 2J2     -0.062200
     14 C11         0.6900    0.1310   -3.5610 ca        1 2J2     -0.130000
     15 C12         1.9390    0.1090   -4.1640 ca        1 2J2     -0.143000
     16 C           3.1090    0.0330   -3.3870 ca        1 2J2     -0.012600
     17 CL          4.6220    0.0040   -4.1910 cl        1 2J2     -0.154400
     18 H1          2.6880    0.9580    1.3960 hc        1 2J2      0.025700
     19 H2          3.0310   -0.8020    1.1720 hc        1 2J2      0.025700
     20 H3          1.1320   -1.4700    2.4800 hc        1 2J2      0.022200
     21 H4          1.8840   -0.1000    3.3880 hc        1 2J2      0.022200
     22 H5         -0.5810    0.1540    3.3530 hc        1 2J2      0.053200
     23 H6          0.1830    1.4810    2.4040 hc        1 2J2      0.053200
     24 H8         -1.2370   -1.0550    1.3550 hc        1 2J2      0.057700
     25 H9          4.0020   -0.0780   -1.4070 ha        1 2J2      0.135000
     26 H10        -1.4240    0.2750   -1.5070 hn        1 2J2      0.347700
     27 H11        -0.2250    0.1910   -4.1670 ha        1 2J2      0.129000
     28 H12         2.0150    0.1540   -5.2600 ha        1 2J2      0.126000
@<TRIPOS>BOND
     1    1    2 2   
     2    1    9 1   
     3    1   12 1   
     4    2    3 1   
     5    2   10 1   
     6    3    4 1   
     7    3   18 1   
     8    3   19 1   
     9    4    5 1   
    10    4   20 1   
    11    4   21 1   
    12    5    9 1   
    13    5   22 1   
    14    5   23 1   
    15    6    7 1   
    16    6    8 1   
    17    6    9 1   
    18    9   24 1   
    19   10   11 ar  
    20   10   13 ar  
    21   11   16 ar  
    22   11   25 1   
    23   12   13 1   
    24   12   26 1   
    25   13   14 ar  
    26   14   15 ar  
    27   14   27 1   
    28   15   16 ar  
    29   15   28 1   
    30   16   17 1   
@<TRIPOS>SUBSTRUCTURE
     1 2J2         1 TEMP              0 ****  ****    0 ROOT
