@<TRIPOS>MOLECULE
molecule
   28    30     1     0     0
SMALL
bcc


@<TRIPOS>ATOM
      1 C4           0.0000     0.0000     0.0000 cc         1 2J2       0.038700
      2 C5           1.3510     0.0000     0.0000 cd         1 2J2      -0.208400
      3 C6           2.2020     0.0000     1.2440 c3         1 2J2       0.010800
      4 C7           1.3290    -0.4140     2.4340 c3         1 2J2      -0.089400
      5 C8           0.0450     0.4220     2.4350 c3         1 2J2      -0.049400
      6 C10         -1.9770     0.9770     1.1030 c          1 2J2       0.892600
      7 O1          -2.8570     1.1440     2.1040 o          1 2J2      -0.840300
      8 O           -2.0970     1.6080     0.0800 o          1 2J2      -0.840300
      9 C9          -0.8390     0.0010     1.2560 c3         1 2J2      -0.122500
     10 C2           1.7770    -0.0000    -1.3830 ca         1 2J2      -0.080800
     11 C1           3.0400     0.0010    -1.9860 ca         1 2J2      -0.083000
     12 N           -0.4630    -0.0080    -1.2890 na         1 2J2      -0.131400
     13 C3           0.5900    -0.0020    -2.1600 ca         1 2J2      -0.047200
     14 C11          0.6500    -0.0080    -3.5510 ca         1 2J2      -0.134000
     15 C12          1.9090     0.0000    -4.1280 ca         1 2J2      -0.134000
     16 C            3.0690    -0.0010    -3.3700 ca         1 2J2      -0.010600
     17 Cl           4.6050     0.0110    -4.1800 cl         1 2J2      -0.164400
     18 H1           3.0150    -0.7070     1.1280 hc         1 2J2       0.031200
     19 H2           2.5980     0.9940     1.4130 hc         1 2J2       0.031200
     20 H3           1.0750    -1.4640     2.3480 hc         1 2J2       0.027700
     21 H4           1.8710    -0.2430     3.3560 hc         1 2J2       0.027700
     22 H5           0.2990     1.4710     2.3380 hc         1 2J2       0.054200
     23 H6          -0.4900     0.2590     3.3630 hc         1 2J2       0.054200
     24 H8          -1.2270    -0.9940     1.4330 hc         1 2J2       0.057700
     25 H9           3.9500    -0.0010    -1.3990 ha         1 2J2       0.137000
     26 H10         -1.4280    -0.0170    -1.5540 hn         1 2J2       0.319700
     27 H11         -0.2480    -0.0060    -4.1560 ha         1 2J2       0.130000
     28 H12          1.9890    -0.0010    -5.2080 ha         1 2J2       0.123000
@<TRIPOS>BOND
     1    14    13 ar
     2    14    15 ar
     3    12    13 1
     4    12     1 1
     5     8     6 1
     6    13    10 ar
     7    15    16 ar
     8     6     7 1
     9     6     9 1
    10     9     1 1
    11     9     5 1
    12     1     2 2
    13    16    11 ar
    14    16    17 1
    15    10     2 1
    16    10    11 ar
    17     5     4 1
    18     2     3 1
    19     4     3 1
    20     3    18 1
    21     3    19 1
    22     4    20 1
    23     4    21 1
    24     5    22 1
    25     5    23 1
    26     9    24 1
    27    11    25 1
    28    12    26 1
    29    14    27 1
    30    15    28 1
@<TRIPOS>SUBSTRUCTURE
     1 2J2         1 TEMP              0 ****  ****    0 ROOT
