@<TRIPOS>MOLECULE
molecule
   33    32     1     0     0
SMALL
bcc


@<TRIPOS>ATOM
      1 O1           0.0000     0.0000     0.0000 oh         1 2J3      -0.594800
      2 O2           1.5610     1.2200     2.0820 os         1 2J3      -0.409600
      3 C3           1.4290     0.0000     0.0000 c3         1 2J3       0.149100
      4 O3           0.9940     3.5050     3.7310 os         1 2J3      -0.397600
      5 C4           1.9390     0.0000     1.4420 c3         1 2J3       0.134400
      6 C5           1.9910     1.3230     3.4400 c3         1 2J3       0.148100
      7 C16          1.9400    -1.2500    -0.7220 c3         1 2J3      -0.114100
      8 C15          0.9110     0.7490     4.3610 c3         1 2J3      -0.111100
      9 C6           2.2310     2.7930     3.7900 c3         1 2J3       0.139400
     10 C7           1.1080     4.8950     4.0420 c3         1 2J3       0.144100
     11 C14          0.9120     5.0990     5.5460 c3         1 2J3      -0.112100
     12 C8           0.0380     5.6780     3.2780 c3         1 2J3       0.145400
     13 H1          -0.3140     0.5790    -0.6750 ho         1 2J3       0.402000
     14 H2           1.7900     0.8850    -0.5100 h1         1 2J3       0.038700
     15 H3           1.5080    -0.8370     1.9770 h1         1 2J3       0.030700
     16 H4           3.0190    -0.0880     1.4430 h1         1 2J3       0.030700
     17 H5          -1.9170     5.7090     3.2140 ho         1 2J3       0.398000
     18 H6           2.9100     0.7660     3.5710 h1         1 2J3       0.033700
     19 H7           3.0220    -1.2660    -0.6930 hc         1 2J3       0.042367
     20 H8           1.5520    -2.1340    -0.2300 hc         1 2J3       0.042367
     21 H9           1.6060    -1.2340    -1.7520 hc         1 2J3       0.042367
     22 H10         -0.0650     1.0680     4.0170 hc         1 2J3       0.046033
     23 H11          1.0710     1.1060     5.3720 hc         1 2J3       0.046033
     24 H12          0.9630    -0.3330     4.3480 hc         1 2J3       0.046033
     25 H13          2.9300     3.2230     3.0820 h1         1 2J3       0.027200
     26 H14          2.6410     2.8640     4.7900 h1         1 2J3       0.027200
     27 H15          2.0900     5.2500     3.7540 h1         1 2J3       0.034700
     28 H16          1.8180     4.8180     6.0690 hc         1 2J3       0.043367
     29 H17          0.6890     6.1400     5.7430 hc         1 2J3       0.043367
     30 H18          0.0910     4.4820     5.8900 hc         1 2J3       0.043367
     31 H19          0.1800     6.7390     3.4450 h1         1 2J3       0.026700
     32 H20          0.1210     5.4630     2.2200 h1         1 2J3       0.026700
     33 O4          -1.2570     5.2920     3.7430 oh         1 2J3      -0.596800
@<TRIPOS>BOND
     1     1     3 1   
     2    11    10 1   
     3     7     3 1   
     4     3     5 1   
     5     5     2 1   
     6    10    12 1   
     7    10     4 1   
     8     9     4 1   
     9     9     6 1   
    10    12    33 1   
    11     2     6 1   
    12     6     8 1   
    13     1    13 1   
    14     3    14 1   
    15     5    15 1   
    16     5    16 1   
    17    33    17 1   
    18     6    18 1   
    19     7    19 1   
    20     7    20 1   
    21     7    21 1   
    22     8    22 1   
    23     8    23 1   
    24     8    24 1   
    25     9    25 1   
    26     9    26 1   
    27    10    27 1   
    28    11    28 1   
    29    11    29 1   
    30    11    30 1   
    31    12    31 1   
    32    12    32 1   
@<TRIPOS>SUBSTRUCTURE
     1 2J3         1 TEMP              0 ****  ****    0 ROOT
