@<TRIPOS>MOLECULE
2J3
   33    32     1     0     0
SMALL
bcc


@<TRIPOS>ATOM
      1 O1          0.6870    0.8630   -0.4720 oh        1 2J3     -0.602800
      2 O2          1.8300    1.3510    2.0630 os        1 2J3     -0.435600
      3 C3          1.9440    0.3410   -0.0670 c3        1 2J3      0.145100
      4 O3          0.7870    3.3960    3.9390 os        1 2J3     -0.431600
      5 C4          1.9580    0.0740    1.4430 c3        1 2J3      0.089400
      6 C5          1.8590    1.2950    3.4920 c3        1 2J3      0.142100
      7 C16         2.1630   -0.9480   -0.8340 c3        1 2J3     -0.095100
      8 C15         0.5970    0.6780    4.0580 c3        1 2J3     -0.116100
      9 C6          2.0520    2.7450    3.9560 c3        1 2J3      0.135400
     10 C7          0.8710    4.8110    3.7320 c3        1 2J3      0.101100
     11 C14         1.5270    5.5050    4.9070 c3        1 2J3     -0.124100
     12 C8         -0.5830    5.2660    3.5510 c3        1 2J3      0.137400
     13 H1          0.5040    1.6170    0.1030 ho        1 2J3      0.417000
     14 H2          2.7490    1.0900   -0.3150 h1        1 2J3      0.042700
     15 H3          2.9210   -0.4090    1.7490 h1        1 2J3      0.038700
     16 H4          1.0950   -0.5800    1.7330 h1        1 2J3      0.038700
     17 H5         -1.2890    4.0470    4.8690 ho        1 2J3      0.414000
     18 H6          2.7630    0.7030    3.8170 h1        1 2J3      0.037700
     19 H7          3.1710   -1.3610   -0.5970 hc        1 2J3      0.046367
     20 H8          1.3830   -1.7000   -0.5640 hc        1 2J3      0.046367
     21 H9          2.0940   -0.7490   -1.9300 hc        1 2J3      0.046367
     22 H10         0.5610    0.8480    5.1600 hc        1 2J3      0.048700
     23 H11         0.5690   -0.4190    3.8580 hc        1 2J3      0.048700
     24 H12        -0.3000    1.1550    3.5940 hc        1 2J3      0.048700
     25 H13         2.4350    2.7460    5.0110 h1        1 2J3      0.043200
     26 H14         2.7830    3.2640    3.2830 h1        1 2J3      0.043200
     27 H15         1.4450    5.0150    2.7850 h1        1 2J3      0.046700
     28 H16         2.5630    5.1200    5.0610 hc        1 2J3      0.046700
     29 H17         1.5730    6.6040    4.7190 hc        1 2J3      0.046700
     30 H18         0.9320    5.3240    5.8350 hc        1 2J3      0.046700
     31 H19        -0.6180    6.3810    3.4300 h1        1 2J3      0.052200
     32 H20        -1.0210    4.7650    2.6470 h1        1 2J3      0.052200
     33 O4         -1.3760    4.9920    4.6860 oh        1 2J3     -0.598800
@<TRIPOS>BOND
     1    1    3 1   
     2    1   13 1   
     3    2    5 1   
     4    2    6 1   
     5    3    5 1   
     6    3    7 1   
     7    3   14 1   
     8    4    9 1   
     9    4   10 1   
    10    5   15 1   
    11    5   16 1   
    12    6    8 1   
    13    6    9 1   
    14    6   18 1   
    15    7   19 1   
    16    7   20 1   
    17    7   21 1   
    18    8   22 1   
    19    8   23 1   
    20    8   24 1   
    21    9   25 1   
    22    9   26 1   
    23   10   11 1   
    24   10   12 1   
    25   10   27 1   
    26   11   28 1   
    27   11   29 1   
    28   11   30 1   
    29   12   31 1   
    30   12   32 1   
    31   12   33 1   
    32   17   33 1   
@<TRIPOS>SUBSTRUCTURE
     1 2J3         1 TEMP              0 ****  ****    0 ROOT
