@<TRIPOS>MOLECULE
2J5
   30    31     1     0     0
SMALL
bcc


@<TRIPOS>ATOM
      1 C4           0.0000     0.0000     0.0000 ca         1 2J5       0.450200
      2 C5           2.0130     0.0000     1.1290 ca         1 2J5       0.528200
      3 C6           4.0920     0.0010    -0.2110 c3         1 2J5       0.240100
      4 N1           3.4020     0.0000     1.0820 nu         1 2J5      -0.514900
      5 C7           5.5830     0.0020     0.0160 ca         1 2J5      -0.153300
      6 C8           6.2960     1.1820    -0.0790 ca         1 2J5      -0.056000
      7 C9           7.6630     1.1830     0.1270 ca         1 2J5      -0.132000
      8 C10          8.3190     0.0050     0.4300 ca         1 2J5      -0.062000
      9 C11          7.6110    -1.1770     0.5270 ca         1 2J5      -0.178000
     10 C12          6.2370    -1.1810     0.3260 ca         1 2J5       0.151100
     11 O            5.5370    -2.3410     0.4260 oh         1 2J5      -0.485100
     12 C1           1.3640    -0.0010     2.3590 ca         1 2J5      -0.290600
     13 C            2.1570    -0.0010     3.6400 c3         1 2J5       0.078200
     14 N            1.3190     0.0000     0.0000 nb         1 2J5      -0.659000
     15 C3          -0.7090     0.0050     1.1850 ca         1 2J5      -0.296300
     16 C2          -0.0190     0.0040     2.3900 ca         1 2J5      -0.019000
     17 H1          -0.5340     0.0000    -0.9420 h4         1 2J5      -0.027900
     18 H2           3.8130    -0.8830    -0.7700 h1         1 2J5       0.027200
     19 H3           3.8110     0.8860    -0.7690 h1         1 2J5       0.027200
     20 H4           3.9310     0.0190     1.9310 hn         1 2J5       0.303800
     21 H5           5.7830     2.1070    -0.3170 ha         1 2J5       0.110000
     22 H6           8.2200     2.1080     0.0510 ha         1 2J5       0.107000
     23 H7           9.3910     0.0080     0.5890 ha         1 2J5       0.103000
     24 H8           8.1260    -2.0990     0.7670 ha         1 2J5       0.112000
     25 H9           5.9640    -3.0100    -0.0830 ho         1 2J5       0.405000
     26 H10          2.6820    -0.9430     3.7390 hc         1 2J5       0.005367
     27 H11          1.4850     0.1280     4.4800 hc         1 2J5       0.005367
     28 H12          2.8730     0.8110     3.6220 hc         1 2J5       0.005367
     29 H13         -1.7920     0.0070     1.1750 ha         1 2J5       0.112000
     30 H14         -0.5520     0.0060     3.3330 ha         1 2J5       0.104000
@<TRIPOS>BOND
     1     1    14 ar  
     2     1    15 ar  
     3     1    17 1   
     4     2     4 1   
     5     2    12 ar  
     6     2    14 ar  
     7     3     4 1   
     8     3     5 1   
     9     3    18 1   
    10     3    19 1   
    11     4    20 1   
    12     5     6 ar  
    13     5    10 ar  
    14     6     7 ar  
    15     6    21 1   
    16     7     8 ar  
    17     7    22 1   
    18     8     9 ar  
    19     8    23 1   
    20     9    10 ar  
    21     9    24 1   
    22    10    11 1   
    23    11    25 1   
    24    12    13 1   
    25    12    16 ar  
    26    13    26 1   
    27    13    27 1   
    28    13    28 1   
    29    15    16 ar  
    30    15    29 1   
    31    16    30 1   
@<TRIPOS>SUBSTRUCTURE
     1 2J5         1 TEMP              0 ****  ****    0 ROOT
