@<TRIPOS>MOLECULE
2J6
   35    37     1     0     0
SMALL
bcc


@<TRIPOS>ATOM
      1 C9           0.0000     0.0000     0.0000 ca         1 2J6      -0.162300
      2 C2          -2.9860     3.1510    -4.2830 ca         1 2J6       0.024000
      3 C10          1.3810     0.0000     0.0000 ca         1 2J6      -0.026000
      4 C4          -1.9250     1.6050    -2.7690 ca         1 2J6       0.558200
      5 N5          -2.2920     0.5980    -3.5430 nb         1 2J6      -0.671000
      6 C6          -2.9690     0.7900    -4.6590 ca         1 2J6       0.472200
      7 C1          -3.3400     2.0590    -5.0610 ca         1 2J6      -0.310300
      8 C3          -2.2600     2.9240    -3.1130 cp         1 2J6      -0.357800
      9 N7          -1.2060     1.3580    -1.6100 nu         1 2J6      -0.496900
     10 C8          -0.7540    -0.0020    -1.3060 c3         1 2J6       0.238100
     11 C11          2.0730     0.0000     1.1960 ca         1 2J6      -0.164000
     12 C12          1.3850     0.0020     2.3970 ca         1 2J6       0.140900
     13 C13          0.0010     0.0010     2.4010 ca         1 2J6      -0.214000
     14 C14         -0.6940    -0.0040     1.2020 ca         1 2J6       0.175100
     15 O15         -2.0530    -0.0030     1.2030 oh         1 2J6      -0.483100
     16 F16          2.0640     0.0020     3.5650 f          1 2J6      -0.126900
     17 C17         -1.8510     4.0560    -2.2490 cp         1 2J6       0.682500
     18 N18         -0.5960     4.1250    -1.8230 nb         1 2J6      -0.622500
     19 C19         -0.1990     5.1210    -1.0520 ca         1 2J6       0.445200
     20 C20         -1.1120     6.1010    -0.6870 ca         1 2J6      -0.358600
     21 C21         -2.4150     5.9980    -1.1490 ca         1 2J6       0.445200
     22 N22         -2.7460     4.9780    -1.9230 nb         1 2J6      -0.622500
     23 H2           1.9220    -0.0010    -0.9380 ha         1 2J6       0.116000
     24 H3          -3.2480    -0.0630    -5.2660 h4         1 2J6      -0.027900
     25 H4          -3.9000     2.2000    -5.9770 ha         1 2J6       0.115000
     26 H5          -1.0340     2.0990    -0.9600 hn         1 2J6       0.310800
     27 H6          -0.1030    -0.3520    -2.0980 h1         1 2J6       0.028700
     28 H7          -1.6120    -0.6590    -1.2260 h1         1 2J6       0.028700
     29 H8           3.1570     0.0000     1.1940 ha         1 2J6       0.123000
     30 H9          -0.5380     0.0010     3.3410 ha         1 2J6       0.129000
     31 H10         -2.3670    -0.6870     1.7710 ho         1 2J6       0.409000
     32 H11          0.8270     5.1730    -0.7070 h4         1 2J6      -0.014900
     33 H12         -0.8130     6.9270    -0.0530 ha         1 2J6       0.124000
     34 H13         -3.1510     6.7470    -0.8840 h4         1 2J6      -0.014900
     35 H1          -3.2630     4.1560    -4.5770 ha         1 2J6       0.110000
@<TRIPOS>BOND
     1     1     3 ar  
     2     1    10 1   
     3     1    14 ar  
     4     2     7 ar  
     5     2     8 ar  
     6     2    35 1   
     7     3    11 ar  
     8     3    23 1   
     9     4     5 ar  
    10     4     8 ar  
    11     4     9 1   
    12     5     6 ar  
    13     6     7 ar  
    14     6    24 1   
    15     7    25 1   
    16     8    17 1   
    17     9    10 1   
    18     9    26 1   
    19    10    27 1   
    20    10    28 1   
    21    11    12 ar  
    22    11    29 1   
    23    12    13 ar  
    24    12    16 1   
    25    13    14 ar  
    26    13    30 1   
    27    14    15 1   
    28    15    31 1   
    29    17    18 ar  
    30    17    22 ar  
    31    18    19 ar  
    32    19    20 ar  
    33    19    32 1   
    34    20    21 ar  
    35    20    33 1   
    36    21    22 ar  
    37    21    34 1   
@<TRIPOS>SUBSTRUCTURE
     1 2J6         1 TEMP              0 ****  ****    0 ROOT
