@<TRIPOS>MOLECULE
molecule
   35    37     1     0     0
SMALL
bcc


@<TRIPOS>ATOM
      1 C9           0.0000     0.0000     0.0000 ca         1 2J6      -0.149300
      2 C2          -2.9860     3.1510    -4.2830 ca         1 2J6      -0.010000
      3 C10          1.3810     0.0000     0.0000 ca         1 2J6      -0.061000
      4 C4          -1.9250     1.6050    -2.7690 ca         1 2J6       0.740200
      5 N5          -2.2920     0.5980    -3.5430 nb         1 2J6      -0.773000
      6 C6          -2.9690     0.7900    -4.6590 ca         1 2J6       0.483200
      7 C1          -3.3400     2.0590    -5.0610 ca         1 2J6      -0.331300
      8 C3          -2.2600     2.9240    -3.1130 cp         1 2J6      -0.332800
      9 N7          -1.2060     1.3580    -1.6100 nu         1 2J6      -0.894900
     10 C8          -0.7540    -0.0020    -1.3060 c3         1 2J6       0.301100
     11 C11          2.0730     0.0000     1.1960 ca         1 2J6      -0.193000
     12 C12          1.3850     0.0020     2.3970 ca         1 2J6       0.164900
     13 C13          0.0010     0.0010     2.4010 ca         1 2J6      -0.238000
     14 C14         -0.6940    -0.0040     1.2020 ca         1 2J6       0.156100
     15 O15         -2.0530    -0.0030     1.2030 oh         1 2J6      -0.500100
     16 F16          2.0640     0.0020     3.5650 f          1 2J6      -0.136900
     17 C17         -1.8510     4.0560    -2.2490 cp         1 2J6       0.751500
     18 N18         -0.5960     4.1250    -1.8230 nb         1 2J6      -0.733000
     19 C19         -0.1990     5.1210    -1.0520 ca         1 2J6       0.459700
     20 C20         -1.1120     6.1010    -0.6870 ca         1 2J6      -0.393600
     21 C21         -2.4150     5.9980    -1.1490 ca         1 2J6       0.459700
     22 N22         -2.7460     4.9780    -1.9230 nb         1 2J6      -0.733000
     23 H2           1.9220    -0.0010    -0.9380 ha         1 2J6       0.149000
     24 H3          -3.2480    -0.0630    -5.2660 h4         1 2J6       0.020100
     25 H4          -3.9000     2.2000    -5.9770 ha         1 2J6       0.138000
     26 H5          -1.0340     2.0990    -0.9600 hn         1 2J6       0.461800
     27 H6          -0.1030    -0.3520    -2.0980 h1         1 2J6       0.057700
     28 H7          -1.6120    -0.6590    -1.2260 h1         1 2J6       0.057700
     29 H8           3.1570     0.0000     1.1940 ha         1 2J6       0.149000
     30 H9          -0.5380     0.0010     3.3410 ha         1 2J6       0.151000
     31 H10         -2.3670    -0.6870     1.7710 ho         1 2J6       0.426000
     32 H11          0.8270     5.1730    -0.7070 h4         1 2J6       0.030600
     33 H12         -0.8130     6.9270    -0.0530 ha         1 2J6       0.146000
     34 H13         -3.1510     6.7470    -0.8840 h4         1 2J6       0.030600
     35 H1          -3.2630     4.1560    -4.5770 ha         1 2J6       0.146000
@<TRIPOS>BOND
     1     6     7 ar
     2     6     5 ar
     3     7     2 ar
     4    15    14 1
     5     5     4 ar
     6    14    13 ar
     7    14     1 ar
     8    13    12 ar
     9     2     8 ar
    10     4     8 ar
    11     4     9 1
    12    10     1 1
    13    10     9 1
    14     8    17 1
    15     1     3 ar
    16    12    16 1
    17    12    11 ar
    18     3    11 ar
    19    17    22 ar
    20    17    18 ar
    21    22    21 ar
    22    18    19 ar
    23    21    20 ar
    24    19    20 ar
    25     2    35 1
    26     3    23 1
    27     6    24 1
    28     7    25 1
    29     9    26 1
    30    10    27 1
    31    10    28 1
    32    11    29 1
    33    13    30 1
    34    15    31 1
    35    19    32 1
    36    20    33 1
    37    21    34 1
@<TRIPOS>SUBSTRUCTURE
     1 2J6         1 TEMP              0 ****  ****    0 ROOT
