@<TRIPOS>MOLECULE
molecule
   42    44     1     0     0
SMALL
bcc


@<TRIPOS>ATOM
      1 C7           0.0000     0.0000     0.0000 c3         1 2J7       0.299100
      2 N8           1.4640     0.0000     0.0000 nu         1 2J7      -0.903400
      3 C9           2.1580     0.0000     1.2010 ca         1 2J7       0.757200
      4 C2          -1.4040     0.0060    -4.0380 ca         1 2J7      -0.096000
      5 C10          1.4720    -0.0060     2.4120 ca         1 2J7      -0.527600
      6 C4          -0.5380    -1.1820    -2.1440 ca         1 2J7       0.132100
      7 C6          -0.9280     1.1790    -2.0040 ca         1 2J7      -0.090000
      8 C1          -1.3730     1.1830    -3.3120 ca         1 2J7      -0.149500
      9 C3          -0.9900    -1.1760    -3.4570 ca         1 2J7      -0.187000
     10 C5          -0.5020     0.0010    -1.4210 ca         1 2J7      -0.136800
     11 C11          2.2140    -0.0060     3.5890 ca         1 2J7       0.757200
     12 N12          3.5430    -0.0010     3.5150 nb         1 2J7      -0.850000
     13 C13          4.1560     0.0040     2.3500 ca         1 2J7       0.755900
     14 N14          3.4890    -0.0010     1.2130 nb         1 2J7      -0.850000
     15 N15          1.5770    -0.0120     4.8210 nu         1 2J7      -0.903400
     16 C16          0.1130    -0.0170     4.8900 c3         1 2J7       0.299100
     17 C17         -0.3210    -0.0210     6.3320 ca         1 2J7      -0.136800
     18 C18         -0.7110    -1.2020     6.9330 ca         1 2J7      -0.090000
     19 C19         -1.1100    -1.2080     8.2570 ca         1 2J7      -0.149500
     20 C20         -1.1210    -0.0310     8.9820 ca         1 2J7      -0.096000
     21 C21         -0.7330     1.1530     8.3870 ca         1 2J7      -0.187000
     22 C22         -0.3250     1.1600     7.0600 ca         1 2J7       0.132100
     23 O23          0.0620     2.3220     6.4730 oh         1 2J7      -0.505100
     24 H1          -0.3610    -0.8850     0.5100 h1         1 2J7       0.046950
     25 H2          -0.3610     0.8840     0.5110 h1         1 2J7       0.046950
     26 H3           1.9650     0.0250    -0.8660 hn         1 2J7       0.456800
     27 H4          -1.7550     0.0110    -5.0630 ha         1 2J7       0.134000
     28 H5           0.3890    -0.0100     2.4380 ha         1 2J7       0.136000
     29 H6          -0.9050     2.1020    -1.4380 ha         1 2J7       0.139000
     30 H7          -1.7030     2.1080    -3.7690 ha         1 2J7       0.135000
     31 H8          -1.0170    -2.0980    -4.0250 ha         1 2J7       0.139000
     32 H9           5.2390     0.0060     2.3240 h5         1 2J7       0.053100
     33 H10          2.1180    -0.0510     5.6630 hn         1 2J7       0.456800
     34 H11         -0.2740     0.8680     4.3980 h1         1 2J7       0.046950
     35 H12         -0.2680    -0.9010     4.3950 h1         1 2J7       0.046950
     36 H13         -0.7030    -2.1260     6.3670 ha         1 2J7       0.139000
     37 H14         -1.4150    -2.1360     8.7260 ha         1 2J7       0.135000
     38 H15         -1.4370    -0.0370    10.0180 ha         1 2J7       0.134000
     39 H16         -0.7390     2.0750     8.9570 ha         1 2J7       0.139000
     40 H17         -0.6180     2.9670     6.5750 ho         1 2J7       0.421000
     41 H18         -0.8280    -2.9770    -1.6130 ho         1 2J7       0.421000
     42 O24         -0.1300    -2.3440    -1.5700 oh         1 2J7      -0.505100
@<TRIPOS>BOND
     1     8     7 ar
     2     8     4 ar
     3     7    10 ar
     4     2     1 1
     5     2     3 1
     6     4     9 ar
     7    10     1 1
     8    10     6 ar
     9     5     3 ar
    10     5    11 ar
    11    15    11 1
    12    15    16 1
    13     3    14 ar
    14     9     6 ar
    15    11    12 ar
    16    18    19 ar
    17    18    17 ar
    18     6    42 1
    19    16    17 1
    20    19    20 ar
    21    17    22 ar
    22    14    13 ar
    23    12    13 ar
    24    20    21 ar
    25    22    21 ar
    26    22    23 1
    27     1    24 1
    28     1    25 1
    29     2    26 1
    30     4    27 1
    31     5    28 1
    32     7    29 1
    33     8    30 1
    34     9    31 1
    35    13    32 1
    36    15    33 1
    37    16    34 1
    38    16    35 1
    39    18    36 1
    40    19    37 1
    41    20    38 1
    42    21    39 1
    43    23    40 1
    44    42    41 1
@<TRIPOS>SUBSTRUCTURE
     1 2J7         1 TEMP              0 ****  ****    0 ROOT
