@<TRIPOS>MOLECULE
2J7
   42    44     1     0     0
SMALL
bcc


@<TRIPOS>ATOM
      1 C7           0.0000     0.0000     0.0000 c3         1 2J7       0.234100
      2 N8           1.4640     0.0000     0.0000 nu         1 2J7      -0.493400
      3 C9           2.1580     0.0000     1.2010 ca         1 2J7       0.587200
      4 C2          -1.4040     0.0060    -4.0380 ca         1 2J7      -0.062000
      5 C10          1.4720    -0.0060     2.4120 ca         1 2J7      -0.538600
      6 C4          -0.5380    -1.1820    -2.1440 ca         1 2J7       0.151100
      7 C6          -0.9280     1.1790    -2.0040 ca         1 2J7      -0.056500
      8 C1          -1.3730     1.1830    -3.3120 ca         1 2J7      -0.127500
      9 C3          -0.9900    -1.1760    -3.4570 ca         1 2J7      -0.169500
     10 C5          -0.5020     0.0010    -1.4210 ca         1 2J7      -0.153800
     11 C11          2.2140    -0.0060     3.5890 ca         1 2J7       0.587200
     12 N12          3.5430    -0.0010     3.5150 nb         1 2J7      -0.756500
     13 C13          4.1560     0.0040     2.3500 ca         1 2J7       0.717900
     14 N14          3.4890    -0.0010     1.2130 nb         1 2J7      -0.756500
     15 N15          1.5770    -0.0120     4.8210 nu         1 2J7      -0.493400
     16 C16          0.1130    -0.0170     4.8900 c3         1 2J7       0.234100
     17 C17         -0.3210    -0.0210     6.3320 ca         1 2J7      -0.153800
     18 C18         -0.7110    -1.2020     6.9330 ca         1 2J7      -0.056500
     19 C19         -1.1100    -1.2080     8.2570 ca         1 2J7      -0.127500
     20 C20         -1.1210    -0.0310     8.9820 ca         1 2J7      -0.062000
     21 C21         -0.7330     1.1530     8.3870 ca         1 2J7      -0.169500
     22 C22         -0.3250     1.1600     7.0600 ca         1 2J7       0.151100
     23 O23          0.0620     2.3220     6.4730 oh         1 2J7      -0.486600
     24 H1          -0.3610    -0.8850     0.5100 h1         1 2J7       0.018700
     25 H2          -0.3610     0.8840     0.5110 h1         1 2J7       0.018700
     26 H3           1.9650     0.0250    -0.8660 hn         1 2J7       0.304800
     27 H4          -1.7550     0.0110    -5.0630 ha         1 2J7       0.103500
     28 H5           0.3890    -0.0100     2.4380 ha         1 2J7       0.137000
     29 H6          -0.9050     2.1020    -1.4380 ha         1 2J7       0.109000
     30 H7          -1.7030     2.1080    -3.7690 ha         1 2J7       0.107500
     31 H8          -1.0170    -2.0980    -4.0250 ha         1 2J7       0.114000
     32 H9           5.2390     0.0060     2.3240 h5         1 2J7      -0.010900
     33 H10          2.1180    -0.0510     5.6630 hn         1 2J7       0.304800
     34 H11         -0.2740     0.8680     4.3980 h1         1 2J7       0.018700
     35 H12         -0.2680    -0.9010     4.3950 h1         1 2J7       0.018700
     36 H13         -0.7030    -2.1260     6.3670 ha         1 2J7       0.109000
     37 H14         -1.4150    -2.1360     8.7260 ha         1 2J7       0.107500
     38 H15         -1.4370    -0.0370    10.0180 ha         1 2J7       0.103500
     39 H16         -0.7390     2.0750     8.9570 ha         1 2J7       0.114000
     40 H17         -0.6180     2.9670     6.5750 ho         1 2J7       0.404500
     41 H18         -0.8280    -2.9770    -1.6130 ho         1 2J7       0.404500
     42 O24         -0.1300    -2.3440    -1.5700 oh         1 2J7      -0.486600
@<TRIPOS>BOND
     1     1     2 1   
     2     1    10 1   
     3     1    24 1   
     4     1    25 1   
     5     2     3 1   
     6     2    26 1   
     7     3     5 ar  
     8     3    14 ar  
     9     4     8 ar  
    10     4     9 ar  
    11     4    27 1   
    12     5    11 ar  
    13     5    28 1   
    14     6     9 ar  
    15     6    10 ar  
    16     6    42 1   
    17     7     8 ar  
    18     7    10 ar  
    19     7    29 1   
    20     8    30 1   
    21     9    31 1   
    22    11    12 ar  
    23    11    15 1   
    24    12    13 ar  
    25    13    14 ar  
    26    13    32 1   
    27    15    16 1   
    28    15    33 1   
    29    16    17 1   
    30    16    34 1   
    31    16    35 1   
    32    17    18 ar  
    33    17    22 ar  
    34    18    19 ar  
    35    18    36 1   
    36    19    20 ar  
    37    19    37 1   
    38    20    21 ar  
    39    20    38 1   
    40    21    22 ar  
    41    21    39 1   
    42    22    23 1   
    43    23    40 1   
    44    41    42 1   
@<TRIPOS>SUBSTRUCTURE
     1 2J7         1 TEMP              0 ****  ****    0 ROOT
