@<TRIPOS>MOLECULE
molecule
   66    69     1     0     0
SMALL
bcc


@<TRIPOS>ATOM
      1 SE1          0.0000     0.0000     0.0000 ss         1 2J8      -0.539300
      2 SE2          5.7730     0.4400     7.3810 ss         1 2J8      -0.539300
      3 SE3          9.0890     1.6520    -1.3040 ss         1 2J8      -0.539300
      4 C01          6.5750     1.0060    -1.3250 cc         1 2J8       0.314800
      5 C02          5.1720     0.7000    -1.6680 c          1 2J8       0.578267
      6 N03          4.3020     0.3200    -0.6850 ns         1 2J8      -0.548900
      7 C04          2.9380     0.0010    -1.1670 c3         1 2J8       0.097400
      8 C05          1.9860     0.0000     0.0000 cd         1 2J8       0.661700
      9 C07         -0.0310    -0.0100     1.9850 cd         1 2J8       0.067267
     10 C08          1.3040    -0.0060     2.2460 cc         1 2J8       0.314800
     11 C09          1.7340    -0.0110     3.6560 c          1 2J8       0.578267
     12 N10          3.0640     0.0020     3.9680 ns         1 2J8      -0.548900
     13 C11          3.3480    -0.0710     5.4200 c3         1 2J8       0.097400
     14 C12          4.8030     0.2360     5.6600 cc         1 2J8       0.661700
     15 C14          7.4720     0.7920     6.4190 cc         1 2J8       0.067267
     16 C15          7.0400     0.7070     5.1310 cd         1 2J8       0.314800
     17 C16          8.0270     0.9110     4.0550 c          1 2J8       0.578267
     18 N17          7.6360     0.8570     2.7460 ns         1 2J8      -0.548900
     19 C18          8.7420     1.0330     1.7760 c3         1 2J8       0.097400
     20 C19          8.1790     1.1290     0.3820 cd         1 2J8       0.661700
     21 C21          7.4090     1.3890    -2.3290 cd         1 2J8       0.067267
     22 N22          6.9750     0.8950    -0.0530 nc         1 2J8      -0.730667
     23 N23          5.7680     0.4400     4.8120 nd         1 2J8      -0.730667
     24 N24          2.2290     0.0000     1.2790 nc         1 2J8      -0.730667
     25 O26          0.9020    -0.0260     4.5440 o          1 2J8      -0.610767
     26 O27          9.1900     1.1290     4.3320 o          1 2J8      -0.610767
     27 C28          2.9390    -1.3790    -1.8270 c3         1 2J8      -0.066367
     28 C29          1.5300    -1.7080    -2.3240 c3         1 2J8      -0.190767
     29 C30          3.9100    -1.3790    -3.0090 c3         1 2J8      -0.190767
     30 C31          3.0330    -1.4790     5.9320 c3         1 2J8      -0.066367
     31 C32          4.0020    -2.4800     5.2990 c3         1 2J8      -0.190767
     32 C33          3.1860    -1.5140     7.4540 c3         1 2J8      -0.190767
     33 C34          9.6910    -0.1630     1.8610 c3         1 2J8      -0.066367
     34 C35          8.9620    -1.4270     1.3990 c3         1 2J8      -0.190767
     35 C36         10.9040     0.0820     0.9620 c3         1 2J8      -0.190767
     36 HN03         4.6480    -0.1030     0.1540 hn         1 2J8       0.348167
     37 H04          2.6250     0.7470    -1.8880 h1         1 2J8       0.102033
     38 H07         -0.8040     0.4180     2.6120 h4         1 2J8       0.212000
     39 HN10         3.7170     0.4440     3.3520 hn         1 2J8       0.348167
     40 H11          2.7340     0.6500     5.9460 h1         1 2J8       0.102033
     41 H14          8.2920     1.4040     6.7760 h4         1 2J8       0.212000
     42 HN17         6.8220     0.3340     2.4880 hn         1 2J8       0.348167
     43 H18          9.2850     1.9420     2.0090 h1         1 2J8       0.102033
     44 H21          7.3370     1.0880    -3.3670 h4         1 2J8       0.212000
     45 H28          3.2490    -2.1250    -1.1050 hc         1 2J8       0.065367
     46 H29          1.5880    -2.4530    -3.1080 hc         1 2J8       0.071756
     47 H29A         0.9370    -2.0920    -1.5030 hc         1 2J8       0.071756
     48 H29B         1.0660    -0.8100    -2.7140 hc         1 2J8       0.071756
     49 H30          3.8050    -2.3050    -3.5620 hc         1 2J8       0.071756
     50 H30A         3.6870    -0.5420    -3.6600 hc         1 2J8       0.071756
     51 H30B         4.9250    -1.2900    -2.6420 hc         1 2J8       0.071756
     52 H31          2.0170    -1.7410     5.6640 hc         1 2J8       0.065367
     53 H32          4.1030    -2.2660     4.2420 hc         1 2J8       0.071756
     54 H32A         4.9700    -2.3980     5.7780 hc         1 2J8       0.071756
     55 H32B         3.6180    -3.4850     5.4290 hc         1 2J8       0.071756
     56 H33          2.5500    -1.9220     8.2310 hc         1 2J8       0.071756
     57 H33A         2.3420    -0.8410     7.3720 hc         1 2J8       0.071756
     58 H33B         3.2870    -2.5710     7.2360 hc         1 2J8       0.071756
     59 H34         10.0210    -0.2910     2.8850 hc         1 2J8       0.065367
     60 H35          7.9910    -1.4790     1.8760 hc         1 2J8       0.071756
     61 H35A         8.8350    -1.3980     0.3240 hc         1 2J8       0.071756
     62 H35B         9.5450    -2.2990     1.6700 hc         1 2J8       0.071756
     63 H36         11.1910     1.1250     1.0200 hc         1 2J8       0.071756
     64 H36A        11.7290    -0.5380     1.2900 hc         1 2J8       0.071756
     65 H36B        10.6510    -0.1660    -0.0620 hc         1 2J8       0.071756
     66 O25          4.7940     0.7860    -2.8210 o          1 2J8      -0.610767
@<TRIPOS>BOND
     1     8     1 1   
     2     9     1 1   
     3     2    15 1   
     4     2    14 1   
     5    20     3 1   
     6     3    21 1   
     7    22     4 1   
     8    21     4 2   
     9     4     5 1   
    10     6     5 1   
    11     5    66 2   
    12     6     7 1   
    13     6    36 1   
    14    27     7 1   
    15     7     8 1   
    16     7    37 1   
    17    24     8 2   
    18    10     9 2   
    19     9    38 1   
    20    11    10 1   
    21    24    10 1   
    22    12    11 1   
    23    11    25 2   
    24    13    12 1   
    25    12    39 1   
    26    30    13 1   
    27    14    13 1   
    28    13    40 1   
    29    14    23 2   
    30    15    16 2   
    31    15    41 1   
    32    16    17 1   
    33    16    23 1   
    34    18    17 1   
    35    17    26 2   
    36    18    19 1   
    37    18    42 1   
    38    33    19 1   
    39    19    20 1   
    40    19    43 1   
    41    20    22 2   
    42    21    44 1   
    43    28    27 1   
    44    27    29 1   
    45    27    45 1   
    46    28    46 1   
    47    28    47 1   
    48    28    48 1   
    49    29    49 1   
    50    29    50 1   
    51    29    51 1   
    52    32    30 1   
    53    30    31 1   
    54    30    52 1   
    55    31    53 1   
    56    31    54 1   
    57    31    55 1   
    58    32    56 1   
    59    32    57 1   
    60    32    58 1   
    61    34    33 1   
    62    35    33 1   
    63    33    59 1   
    64    34    60 1   
    65    34    61 1   
    66    34    62 1   
    67    35    63 1   
    68    35    64 1   
    69    35    65 1   
@<TRIPOS>SUBSTRUCTURE
     1 2J8         1 TEMP              0 ****  ****    0 ROOT
