@<TRIPOS>MOLECULE
2J8
   66    69     1     0     0
SMALL
bcc


@<TRIPOS>ATOM
      1 SE1          0.0000     0.0000     0.0000 ss         1 2J8      -0.573300
      2 SE2          5.7730     0.4400     7.3810 ss         1 2J8      -0.573300
      3 SE3          9.0890     1.6520    -1.3040 ss         1 2J8      -0.573300
      4 C01          6.5750     1.0060    -1.3250 cc         1 2J8       0.242800
      5 C02          5.1720     0.7000    -1.6680 c          1 2J8       0.500600
      6 N03          4.3020     0.3200    -0.6850 ns         1 2J8      -0.185233
      7 C04          2.9380     0.0010    -1.1670 c3         1 2J8       0.012400
      8 C05          1.9860     0.0000     0.0000 cc         1 2J8       0.607033
      9 C07         -0.0310    -0.0100     1.9850 cc         1 2J8       0.140933
     10 C08          1.3040    -0.0060     2.2460 cd         1 2J8       0.242800
     11 C09          1.7340    -0.0110     3.6560 c          1 2J8       0.500600
     12 N10          3.0640     0.0020     3.9680 ns         1 2J8      -0.185233
     13 C11          3.3480    -0.0710     5.4200 c3         1 2J8       0.012400
     14 C12          4.8030     0.2360     5.6600 cc         1 2J8       0.607033
     15 C14          7.4720     0.7920     6.4190 cc         1 2J8       0.140933
     16 C15          7.0400     0.7070     5.1310 cd         1 2J8       0.242800
     17 C16          8.0270     0.9110     4.0550 c          1 2J8       0.500600
     18 N17          7.6360     0.8570     2.7460 ns         1 2J8      -0.185233
     19 C18          8.7420     1.0330     1.7760 c3         1 2J8       0.012400
     20 C19          8.1790     1.1290     0.3820 cd         1 2J8       0.607033
     21 C21          7.4090     1.3890    -2.3290 cd         1 2J8       0.140933
     22 N22          6.9750     0.8950    -0.0530 nc         1 2J8      -0.587667
     23 N23          5.7680     0.4400     4.8120 nd         1 2J8      -0.587667
     24 N24          2.2290     0.0000     1.2790 nd         1 2J8      -0.587667
     25 O26          0.9020    -0.0260     4.5440 o          1 2J8      -0.644100
     26 O27          9.1900     1.1290     4.3320 o          1 2J8      -0.644100
     27 C28          2.9390    -1.3790    -1.8270 c3         1 2J8      -0.050367
     28 C29          1.5300    -1.7080    -2.3240 c3         1 2J8      -0.108100
     29 C30          3.9100    -1.3790    -3.0090 c3         1 2J8      -0.108100
     30 C31          3.0330    -1.4790     5.9320 c3         1 2J8      -0.050367
     31 C32          4.0020    -2.4800     5.2990 c3         1 2J8      -0.108100
     32 C33          3.1860    -1.5140     7.4540 c3         1 2J8      -0.108100
     33 C34          9.6910    -0.1630     1.8610 c3         1 2J8      -0.050367
     34 C35          8.9620    -1.4270     1.3990 c3         1 2J8      -0.108100
     35 C36         10.9040     0.0820     0.9620 c3         1 2J8      -0.108100
     36 HN03         4.6480    -0.1030     0.1540 hn         1 2J8       0.207167
     37 H04          2.6250     0.7470    -1.8880 h1         1 2J8       0.072033
     38 H07         -0.8040     0.4180     2.6120 h4         1 2J8       0.175333
     39 HN10         3.7170     0.4440     3.3520 hn         1 2J8       0.207167
     40 H11          2.7340     0.6500     5.9460 h1         1 2J8       0.072033
     41 H14          8.2920     1.4040     6.7760 h4         1 2J8       0.175333
     42 HN17         6.8220     0.3340     2.4880 hn         1 2J8       0.207167
     43 H18          9.2850     1.9420     2.0090 h1         1 2J8       0.072033
     44 H21          7.3370     1.0880    -3.3670 h4         1 2J8       0.175333
     45 H28          3.2490    -2.1250    -1.1050 hc         1 2J8       0.042367
     46 H29          1.5880    -2.4530    -3.1080 hc         1 2J8       0.042811
     47 H29A         0.9370    -2.0920    -1.5030 hc         1 2J8       0.042811
     48 H29B         1.0660    -0.8100    -2.7140 hc         1 2J8       0.042811
     49 H30          3.8050    -2.3050    -3.5620 hc         1 2J8       0.042811
     50 H30A         3.6870    -0.5420    -3.6600 hc         1 2J8       0.042811
     51 H30B         4.9250    -1.2900    -2.6420 hc         1 2J8       0.042811
     52 H31          2.0170    -1.7410     5.6640 hc         1 2J8       0.042367
     53 H32          4.1030    -2.2660     4.2420 hc         1 2J8       0.042811
     54 H32A         4.9700    -2.3980     5.7780 hc         1 2J8       0.042811
     55 H32B         3.6180    -3.4850     5.4290 hc         1 2J8       0.042811
     56 H33          2.5500    -1.9220     8.2310 hc         1 2J8       0.042811
     57 H33A         2.3420    -0.8410     7.3720 hc         1 2J8       0.042811
     58 H33B         3.2870    -2.5710     7.2360 hc         1 2J8       0.042811
     59 H34         10.0210    -0.2910     2.8850 hc         1 2J8       0.042367
     60 H35          7.9910    -1.4790     1.8760 hc         1 2J8       0.042811
     61 H35A         8.8350    -1.3980     0.3240 hc         1 2J8       0.042811
     62 H35B         9.5450    -2.2990     1.6700 hc         1 2J8       0.042811
     63 H36         11.1910     1.1250     1.0200 hc         1 2J8       0.042811
     64 H36A        11.7290    -0.5380     1.2900 hc         1 2J8       0.042811
     65 H36B        10.6510    -0.1660    -0.0620 hc         1 2J8       0.042811
     66 O25          4.7940     0.7860    -2.8210 o          1 2J8      -0.644100
@<TRIPOS>BOND
     1     1     8 1   
     2     1     9 1   
     3     2    14 1   
     4     2    15 1   
     5     3    20 1   
     6     3    21 1   
     7     4     5 1   
     8     4    21 2   
     9     4    22 1   
    10     5     6 1   
    11     5    66 2   
    12     6     7 1   
    13     6    36 1   
    14     7     8 1   
    15     7    27 1   
    16     7    37 1   
    17     8    24 2   
    18     9    10 2   
    19     9    38 1   
    20    10    11 1   
    21    10    24 1   
    22    11    12 1   
    23    11    25 2   
    24    12    13 1   
    25    12    39 1   
    26    13    14 1   
    27    13    30 1   
    28    13    40 1   
    29    14    23 2   
    30    15    16 2   
    31    15    41 1   
    32    16    17 1   
    33    16    23 1   
    34    17    18 1   
    35    17    26 2   
    36    18    19 1   
    37    18    42 1   
    38    19    20 1   
    39    19    33 1   
    40    19    43 1   
    41    20    22 2   
    42    21    44 1   
    43    27    28 1   
    44    27    29 1   
    45    27    45 1   
    46    28    46 1   
    47    28    47 1   
    48    28    48 1   
    49    29    49 1   
    50    29    50 1   
    51    29    51 1   
    52    30    31 1   
    53    30    32 1   
    54    30    52 1   
    55    31    53 1   
    56    31    54 1   
    57    31    55 1   
    58    32    56 1   
    59    32    57 1   
    60    32    58 1   
    61    33    34 1   
    62    33    35 1   
    63    33    59 1   
    64    34    60 1   
    65    34    61 1   
    66    34    62 1   
    67    35    63 1   
    68    35    64 1   
    69    35    65 1   
@<TRIPOS>SUBSTRUCTURE
     1 2J8         1 TEMP              0 ****  ****    0 ROOT
