@<TRIPOS>MOLECULE
molecule
   27    29     1     0     0
SMALL
bcc


@<TRIPOS>ATOM
      1 CAG          0.0000     0.0000     0.0000 cx         1 2J9      -0.127900
      2 CAH          1.5290     0.0000     0.0000 cx         1 2J9      -0.127900
      3 CAN          0.7640     0.0000     1.3260 cx         1 2J9       0.091500
      4 NAO          0.7620    -1.2430     2.1080 nh         1 2J9      -0.606000
      5 CAI          2.1100    -1.7850     2.2290 c3         1 2J9       0.481000
      6 NAJ          2.0450    -3.1210     2.8590 n7         1 2J9      -0.906100
      7 SAP          1.4630    -3.1230     4.4250 sy         1 2J9       1.413200
      8 OAA          2.5120    -2.6480     5.2580 o          1 2J9      -0.622800
      9 OAB          0.8070    -4.3690     4.6210 o          1 2J9      -0.622800
     10 CAM          0.2100    -1.8730     4.4120 ca         1 2J9      -0.306500
     11 CAL          0.0320    -1.0930     3.2810 ca         1 2J9       0.197600
     12 CAE         -0.9480    -0.0950     3.3070 ca         1 2J9      -0.170000
     13 CAD         -1.7260     0.0940     4.4280 ca         1 2J9      -0.092000
     14 CAK         -1.5480    -0.7050     5.5450 ca         1 2J9       0.087900
     15 FAC         -2.3190    -0.5250     6.6400 f          1 2J9      -0.136900
     16 CAF         -0.5740    -1.6890     5.5320 ca         1 2J9      -0.037000
     17 H1          -0.4670    -0.9390    -0.2700 hc         1 2J9       0.084700
     18 H2          -0.4670     0.9390    -0.2700 hc         1 2J9       0.084700
     19 H3           1.9970     0.9390    -0.2700 hc         1 2J9       0.084700
     20 H4           1.9970    -0.9390    -0.2700 hc         1 2J9       0.084700
     21 H5           0.7640     0.9480     1.8490 h1         1 2J9       0.091700
     22 H6           2.5530    -1.8720     1.2440 h2         1 2J9       0.065200
     23 H7           2.7100    -1.1250     2.8440 h2         1 2J9       0.065200
     24 H8           2.3280    -3.9560     2.3860 hn         1 2J9       0.470800
     25 H9          -1.0950     0.5360     2.4390 ha         1 2J9       0.149000
     26 H10         -2.4810     0.8710     4.4350 ha         1 2J9       0.148000
     27 H11         -0.4300    -2.3180     6.4020 ha         1 2J9       0.156000
@<TRIPOS>BOND
     1     9     7 2
     2     7     6 1
     3     7     8 2
     4     7    10 1
     5     6     5 1
     6     5     4 1
     7    10    16 ar
     8    10    11 ar
     9    16    14 ar
    10     4    11 1
    11     4     3 1
    12    11    12 ar
    13    14    15 1
    14    14    13 ar
    15     2     3 1
    16     2     1 1
    17     3     1 1
    18    12    13 ar
    19     1    17 1
    20     1    18 1
    21     2    19 1
    22     2    20 1
    23     3    21 1
    24     5    22 1
    25     5    23 1
    26     6    24 1
    27    12    25 1
    28    13    26 1
    29    16    27 1
@<TRIPOS>SUBSTRUCTURE
     1 2J9         1 TEMP              0 ****  ****    0 ROOT
