@<TRIPOS>MOLECULE
molecule
   26    25     1     0     0
SMALL
bcc


@<TRIPOS>ATOM
      1 OAE          0.0000     0.0000     0.0000 o          1 2JA      -0.946167
      2 PAN          1.6100     0.0000     0.0000 p5         1 2JA       1.293900
      3 OAF          2.1030     0.0000     1.3960 o          1 2JA      -0.946167
      4 OAB          2.1470    -1.3140    -0.7590 o          1 2JA      -0.946167
      5 OAL          2.1460     1.3150    -0.7580 os         1 2JA      -0.718800
      6 PAO          2.3290     2.8570    -0.3310 p5         1 2JA       1.258600
      7 OAG          3.2600     2.9440     0.8160 o          1 2JA      -0.851000
      8 OAC          0.9010     3.4700     0.0890 o          1 2JA      -0.851000
      9 CAK          3.0060     3.8000    -1.7370 c3         1 2JA      -0.289600
     10 CAI          3.2960     5.2360    -1.2940 c3         1 2JA      -0.067200
     11 CAH          3.8560     6.0160    -2.4550 c2         1 2JA      -0.492200
     12 CAM          3.2450     7.0970    -2.8750 c2         1 2JA      -0.113400
     13 CAA          1.9130     7.4850    -2.2840 c3         1 2JA      -0.098900
     14 CAJ          3.8720     7.9510    -3.9460 c3         1 2JA       0.200600
     15 OAD          5.1200     7.3780    -4.3410 oh         1 2JA      -0.554800
     16 H4           2.2860     3.8100    -2.5460 hc         1 2JA       0.048200
     17 H5           3.9240     3.3350    -2.0760 hc         1 2JA       0.048200
     18 H6           4.0160     5.2260    -0.4850 hc         1 2JA       0.083700
     19 H7           2.3780     5.7010    -0.9550 hc         1 2JA       0.083700
     20 H8           3.0610     5.2910    -2.5860 ha         1 2JA       0.416000
     21 H11          2.0250     7.6530    -1.2200 hc         1 2JA       0.036033
     22 H12          1.5590     8.3930    -2.7570 hc         1 2JA       0.036033
     23 H13          1.1980     6.6890    -2.4510 hc         1 2JA       0.036033
     24 H14          3.2100     8.0000    -4.8020 h1         1 2JA      -0.008300
     25 H15          4.0390     8.9490    -3.5600 h1         1 2JA      -0.008300
     26 H16          5.5260     7.9270    -4.9910 ho         1 2JA       0.351000
@<TRIPOS>BOND
     1     3     2 1   
     2     2     1 1   
     3     2     4 1   
     4     2     5 1   
     5     5     6 1   
     6     6     7 1   
     7     6     8 1   
     8     6     9 1   
     9    10     9 1   
    10    10    11 1   
    11    11    12 2   
    12    12    13 1   
    13    12    14 1   
    14    14    15 1   
    15     9    16 1   
    16     9    17 1   
    17    10    18 1   
    18    10    19 1   
    19    11    20 1   
    20    13    21 1   
    21    13    22 1   
    22    13    23 1   
    23    14    24 1   
    24    14    25 1   
    25    15    26 1   
@<TRIPOS>SUBSTRUCTURE
     1 2JA         1 TEMP              0 ****  ****    0 ROOT
