@<TRIPOS>MOLECULE
2JA
   26    25     1     0     0
SMALL
bcc


@<TRIPOS>ATOM
      1 OAE         1.0160   -0.3530   -1.4750 o         1 2JA     -0.967167
      2 PAN         2.0460   -0.1970   -0.3870 p5        1 2JA      1.461900
      3 OAF         1.6850   -0.8520    0.9190 o         1 2JA     -0.967167
      4 OAB         3.4580   -0.4460   -0.8490 o         1 2JA     -0.967167
      5 OAL         2.0260    1.5370   -0.0420 os        1 2JA     -0.822800
      6 PAO         2.0700    3.1010    0.0600 p5        1 2JA      1.483600
      7 OAG         3.1620    3.6470    0.9350 o         1 2JA     -0.955000
      8 OAC         0.7390    3.7600    0.2720 o         1 2JA     -0.955000
      9 CAK         2.5420    3.5790   -1.5740 c3        1 2JA     -0.316600
     10 CAI         2.6490    5.0660   -1.5020 c3        1 2JA     -0.073200
     11 CAH         3.0690    5.7210   -2.7550 c2        1 2JA     -0.012200
     12 CAM         3.2400    7.0460   -2.9390 c2        1 2JA     -0.330400
     13 CAA         3.0080    8.0510   -1.8790 c3        1 2JA     -0.023900
     14 CAJ         3.6570    7.5990   -4.2580 c3        1 2JA      0.195600
     15 OAD         4.9230    8.2560   -4.2210 oh        1 2JA     -0.651800
     16 H4          1.7690    3.2400   -2.2940 hc        1 2JA      0.052200
     17 H5          3.5060    3.0930   -1.8330 hc        1 2JA      0.052200
     18 H6          1.6450    5.4600   -1.1650 hc        1 2JA      0.092700
     19 H7          3.3740    5.3080   -0.6670 hc        1 2JA      0.092700
     20 H8          3.2570    5.0310   -3.5990 ha        1 2JA      0.107000
     21 H11         2.0570    8.6100   -2.0710 hc        1 2JA      0.022367
     22 H12         3.8450    8.7950   -1.8570 hc        1 2JA      0.022367
     23 H13         2.9320    7.5620   -0.8760 hc        1 2JA      0.022367
     24 H14         3.7170    6.7920   -5.0400 h1        1 2JA      0.016200
     25 H15         2.9400    8.3920   -4.6090 h1        1 2JA      0.016200
     26 H16         5.4310    7.8450   -3.5130 ho        1 2JA      0.406000
@<TRIPOS>BOND
     1    1    2 1   
     2    2    3 1   
     3    2    4 1   
     4    2    5 1   
     5    5    6 1   
     6    6    7 1   
     7    6    8 1   
     8    6    9 1   
     9    9   10 1   
    10    9   16 1   
    11    9   17 1   
    12   10   11 1   
    13   10   18 1   
    14   10   19 1   
    15   11   12 2   
    16   11   20 1   
    17   12   13 1   
    18   12   14 1   
    19   13   21 1   
    20   13   22 1   
    21   13   23 1   
    22   14   15 1   
    23   14   24 1   
    24   14   25 1   
    25   15   26 1   
@<TRIPOS>SUBSTRUCTURE
     1 2JA         1 TEMP              0 ****  ****    0 ROOT
