@<TRIPOS>MOLECULE
2JD
   24    20     1     0     0
SMALL
bcc


@<TRIPOS>ATOM
      1 C16        -0.1010   -0.1770   -0.0530 c2        1 2JD      0.386000
      2 O3         -0.6570   -0.7120    0.9820 o         1 2JD     -0.711500
      3 C17         1.2930    0.2520    0.0180 c2        1 2JD     -0.563000
      4 O4          1.9380    0.0150    1.2260 oh        1 2JD     -0.295000
      5 C18         1.8710    1.3870   -0.7460 c3        1 2JD      0.047000
      6 C19         3.3920    1.3000   -0.7150 c2        1 2JD      0.251000
      7 C20         1.4620    1.3240   -2.2140 c3        1 2JD     -0.201500
      8 C21         1.4650    2.7490   -0.1760 c3        1 2JD     -0.201500
      9 P           6.3340    3.2490   -1.4710 p3        1 2JD      2.476000
     10 O1P         6.8040    3.3410   -0.0710 o         1 2JD     -1.163333
     11 O2P         4.1790    2.2240   -0.9990 o         1 2JD     -0.467000
     12 O3P         5.8640    4.4850   -2.1350 o         1 2JD     -1.163333
     13 H15         2.8590   -2.2270   -0.5200 DU        1 2JD     -0.005500
     14 H16         1.4250    0.4760    1.9130 ho        1 2JD      0.085000
     15 H17         2.4590   -1.6800   -0.3880 DU        1 2JD     -0.005500
     16 H18         3.7880    0.2990   -0.4210 h4        1 2JD      0.093000
     17 H19         1.8890    0.4090   -2.6890 hc        1 2JD      0.052667
     18 H20         1.8300    2.2230   -2.7660 hc        1 2JD      0.052667
     19 H21         0.3460    1.2570   -2.2690 hc        1 2JD      0.052667
     20 H22         0.3640    2.8780   -0.2980 hc        1 2JD      0.052667
     21 H23         1.9950    3.5870   -0.6900 hc        1 2JD      0.052667
     22 H24         1.7110    2.7810    0.9120 hc        1 2JD      0.052667
     23 OXT         6.8320    2.1430   -2.3170 o         1 2JD     -1.163333
     24 O1         -0.8280   -0.0580   -1.1120 o         1 2JD     -0.711500
@<TRIPOS>BOND
     1    1    2 1   
     2    1    3 1   
     3    1   24 1   
     4    3    4 1   
     5    3    5 1   
     6    4   14 1   
     7    5    6 1   
     8    5    7 1   
     9    5    8 1   
    10    6   11 1   
    11    6   16 1   
    12    7   17 1   
    13    7   18 1   
    14    7   19 1   
    15    8   20 1   
    16    8   21 1   
    17    8   22 1   
    18    9   10 1   
    19    9   12 1   
    20    9   23 1   
@<TRIPOS>SUBSTRUCTURE
     1 2JD         1 TEMP              0 ****  ****    0 ROOT
