@<TRIPOS>MOLECULE
molecule
   24    23     1     0     0
SMALL
bcc


@<TRIPOS>ATOM
      1 C16          0.0000     0.0000     0.0000 c          1 2JD       0.880600
      2 O3          -0.6030     0.0860     1.0440 o          1 2JD      -0.877800
      3 C17          1.5080     0.0000     0.0000 c3         1 2JD       0.049100
      4 O4           1.9840     0.0000     1.3470 oh         1 2JD      -0.598800
      5 C18          2.0170     1.2490    -0.7210 c3         1 2JD      -0.044000
      6 C19          3.5470     1.2500    -0.7220 c3         1 2JD       0.227400
      7 C20          1.5060     1.2490    -2.1640 c3         1 2JD      -0.061600
      8 C21          1.5080     2.4980    -0.0010 c3         1 2JD      -0.061600
      9 P            5.5880     2.7430    -1.5850 p5         1 2JD       1.216900
     10 O1P          6.2550     2.7400    -0.2640 o          1 2JD      -0.933167
     11 O2P          4.0230     2.4160    -1.3970 os         1 2JD      -0.594200
     12 O3P          5.7560     4.1910    -2.2690 o          1 2JD      -0.933167
     13 H15          1.8690    -0.8840    -0.5110 h1         1 2JD       0.009700
     14 H16          2.0400    -0.8870     1.6610 ho         1 2JD       0.357000
     15 H17          3.9090     1.2500     0.2990 h1         1 2JD       0.006700
     16 H18          3.9080     0.3650    -1.2330 h1         1 2JD       0.006700
     17 H19          1.5680     0.2460    -2.5690 hc         1 2JD       0.026367
     18 H20          0.4760     1.5830    -2.1830 hc         1 2JD       0.026367
     19 H21          2.1130     1.9180    -2.7630 hc         1 2JD       0.026367
     20 H22          1.8110     3.3810    -0.5500 hc         1 2JD       0.026367
     21 H23          0.4270     2.4640     0.0610 hc         1 2JD       0.026367
     22 H24          1.9250     2.5340     0.9990 hc         1 2JD       0.026367
     23 OXT          6.2580     1.6220    -2.5280 o          1 2JD      -0.933167
     24 O1          -0.6710    -0.1010    -1.1570 o          1 2JD      -0.877800
@<TRIPOS>BOND
     1     2     1 1
     2     1     3 1
     3     4     3 1
     4     3     5 1
     5    12     9 1
     6    11     6 1
     7    11     9 1
     8     7     5 1
     9     5     6 1
    10     5     8 1
    11     9    10 1
    12     3    13 1
    13     4    14 1
    14     6    15 1
    15     6    16 1
    16     7    17 1
    17     7    18 1
    18     7    19 1
    19     8    20 1
    20     8    21 1
    21     8    22 1
    22     9    23 1
    23     1    24 1
@<TRIPOS>SUBSTRUCTURE
     1 2JD         1 TEMP              0 ****  ****    0 ROOT
