@<TRIPOS>MOLECULE
2JE
   21    21     1     0     0
SMALL
bcc


@<TRIPOS>ATOM
      1 C4           0.0000     0.0000     0.0000 cc         1 2JE      -0.327600
      2 N3           1.3590     0.0000     0.0000 na         1 2JE       0.269100
      3 C2           1.7700     0.0000     1.2960 cc         1 2JE       0.227400
      4 N4           0.7250    -0.0000     2.0720 nd         1 2JE      -0.569000
      5 C5          -0.3940    -0.0010     1.3060 cd         1 2JE       0.184800
      6 O6          -2.7080     0.0090     1.0030 o          1 2JE      -0.574100
      7 C22         -1.7840     0.0040     1.7950 c          1 2JE       0.647200
      8 S1          -2.1080     0.0020     3.5280 ss         1 2JE      -0.270700
      9 C11         -3.9180     0.0100     3.5080 c3         1 2JE       0.022700
     10 C12         -4.4430     0.0100     4.9460 c3         1 2JE      -0.026200
     11 N1          -5.9120     0.0160     4.9300 nz         1 2JE       0.081400
     12 H1          -0.6460     0.0000    -0.8700 h4         1 2JE       0.169000
     13 H2           1.9510     0.0000    -0.8080 hn         1 2JE       0.137700
     14 H3           2.8010     0.0000     1.6290 h5         1 2JE       0.037100
     15 H5          -4.2780    -0.8720     2.9930 h1         1 2JE       0.062700
     16 H6          -4.2700     0.8970     2.9950 h1         1 2JE       0.062700
     17 H7          -4.0840     0.8920     5.4610 hx         1 2JE       0.095700
     18 H8          -4.0910    -0.8770     5.4590 hx         1 2JE       0.095700
     19 H9          -6.2550     0.0160     5.8700 hn         1 2JE       0.224467
     20 H4          -6.2370     0.8350     4.4560 hn         1 2JE       0.224467
     21 H13         -6.2440    -0.7990     4.4540 hn         1 2JE       0.224467
@<TRIPOS>BOND
     1     1     2 1   
     2     1     5 2   
     3     1    12 1   
     4     2     3 1   
     5     2    13 1   
     6     3     4 2   
     7     3    14 1   
     8     4     5 1   
     9     5     7 1   
    10     6     7 2   
    11     7     8 1   
    12     8     9 1   
    13     9    10 1   
    14     9    15 1   
    15     9    16 1   
    16    10    11 1   
    17    10    17 1   
    18    10    18 1   
    19    11    19 1   
    20    11    20 1   
    21    11    21 1   
@<TRIPOS>SUBSTRUCTURE
     1 2JE         1 TEMP              0 ****  ****    0 ROOT
