@<TRIPOS>MOLECULE
molecule
   21    21     1     0     0
SMALL
bcc


@<TRIPOS>ATOM
      1 C4           0.0000     0.0000     0.0000 cc         1 2JE      -0.158600
      2 N3           1.3590     0.0000     0.0000 na         1 2JE      -0.287900
      3 C2           1.7700     0.0000     1.2960 cc         1 2JE       0.421400
      4 N4           0.7250    -0.0000     2.0720 nd         1 2JE      -0.670000
      5 C5          -0.3940    -0.0010     1.3060 cd         1 2JE       0.216800
      6 O6          -2.7080     0.0090     1.0030 o          1 2JE      -0.540100
      7 C22         -1.7840     0.0040     1.7950 c          1 2JE       0.557200
      8 S1          -2.1080     0.0020     3.5280 ss         1 2JE      -0.179700
      9 C11         -3.9180     0.0100     3.5080 c3         1 2JE      -0.065300
     10 C12         -4.4430     0.0100     4.9460 c3         1 2JE       0.110800
     11 N1          -5.9120     0.0160     4.9300 nz         1 2JE      -0.810600
     12 H1          -0.6460     0.0000    -0.8700 h4         1 2JE       0.200000
     13 H2           1.9510     0.0000    -0.8080 hn         1 2JE       0.320700
     14 H3           2.8010     0.0000     1.6290 h5         1 2JE       0.084100
     15 H5          -4.2780    -0.8720     2.9930 h1         1 2JE       0.090700
     16 H6          -4.2700     0.8970     2.9950 h1         1 2JE       0.090700
     17 H7          -4.0840     0.8920     5.4610 hx         1 2JE       0.122200
     18 H8          -4.0910    -0.8770     5.4590 hx         1 2JE       0.122200
     19 H9          -6.2550     0.0160     5.8700 hn         1 2JE       0.458800
     20 H4          -6.2370     0.8350     4.4560 hn         1 2JE       0.458800
     21 H13         -6.2440    -0.7990     4.4540 hn         1 2JE       0.458800
@<TRIPOS>BOND
     1     2     3 1
     2     2     1 1
     3     3     4 2
     4     1     5 2
     5     4     5 1
     6     5     7 1
     7     7     6 2
     8     7     8 1
     9     8     9 1
    10     9    10 1
    11    10    11 1
    12     1    12 1
    13     2    13 1
    14     3    14 1
    15     9    15 1
    16     9    16 1
    17    10    17 1
    18    10    18 1
    19    11    19 1
    20    11    20 1
    21    21    11 1
@<TRIPOS>SUBSTRUCTURE
     1 2JE         1 TEMP              0 ****  ****    0 ROOT
